"""


 "Ammonia-methane interaction in Jet Stirred and Flow reactor:
  an experimental and kinetic modeling study"
  S. Arunthanayothin, A. Stagni, Y. Song, O. Herbinet, T. Faravelli, F. Battin-Leclerc

 Submitted to Proceedings of the Combustion Institute (May 2020)

 Kinetic mechanism of Ammonia and C0-C3 fuels pyrolysis and oxidation
 and related interactions

 Reference for the core NH3 mechanism:

 A. Stagni, C. Cavallotti, S. Arunthanayothin,
 Y. Song, O. Herbinet, F. Battin-Leclerc, T. Faravelli
 "An experimental, theoretical and kinetic-modeling study of the gas-phase oxidation of ammonia"
 Reaction Chemistry and Engineering 5, 696-711 (2020).


 CHEMKIN format



 "Ammonia-methane interaction in Jet Stirred and Flow reactor:
  an experimental and kinetic modeling study"
  S. Arunthanayothin, A. Stagni, Y. Song, O. Herbinet, T. Faravelli, F. Battin-Leclerc

 Submitted to Proceedings of the Combustion Institute (May 2020)

 Thermodynamic properties

 CHEMKIN format

VERSION:  17_03
AUTHORS:  C1-C3   Burcat
NOTE:     SPECIES RE-ARRANGED AS THE SAME ORDER IN MECH

VERSION:  17_05
Following species are updated from Burcat's Database:Kik
 C6H5CHCH3	FLUORENE	C5H6	INDENYL	C14H19	C12H7	C12H9
 C6H5CH2C6H5	C10H7	CH3C6H4	C6H5C2H	C6H5O	C6H5C2H3	C10H7CH3
 C10H7CHO	RXYLENE	C10H7CH2	XYLENE	C6H2	Toluene	C6H5OH
 C14H10	C6H5C2H4C6H5	C4H2	C16H10	MCPTD	C7H7	BENZYNE
 C6H5C2H2	C12H8	C6H5C2H5	C10H7O	BENZENE	C4H4	INDENE
 C5H5	C10H6CH3	C6H5 	C10H8	FULVENE	BIPHENYL	C6H4C2H
Following species are updated from ATcT's Database:Ghobad
 H	H2	O	O2	HE
 OH	H2O	N2	HO2	HCO
 H2O2	AR	CO	CO2

"""

units(length='cm', time='s', quantity='mol', act_energy='cal/mol')

ideal_gas(name='gas',
          elements="C H N O Ar He",
          species="""AR         N2         HE         H2         H
                     O2         O          H2O        OH         H2O2
                     HO2        CO         CO2        HOCO       CH4
                     CH3        CH2        CH2(S)     C          CH
                     CH3O2H     CH3O2      CH3OH      CH3O       CH2OH
                     CH2O       HCO        HO2CHO     HOCHO      OCHO
                     C2H6       C2H5       C2H5O2H    C2H5O2     C2H4
                     C2H3       C2H2       C2H        C2H5OH     C2H5O
                     PC2H4OH    SC2H4OH    C2H4O2H    C2H4O1-2   C2H3O1-2
                     CH3CHO     CH3CO      CH2CHO     CH2CO      HCCO
                     CH3CO3     CH3CO3H    CH2OHCHO   CHOCHO     O2C2H4O2H
                     HO2CH2CHO  CH3OCHO    CH3OCO     C3H8       IC3H7
                     NC3H7      C3H6       C3H5-A     C3H5-S     C3H5-T
                     C3H5O      C3H6O      CH3CHCHO   AC4H7OOH   CH3CHCO
                     AC3H5OOH   C3H6OH1-2  C3H6OH2-1  HOC3H6O2   SC3H5OH
                     C3H5OH     CH2CCH2OH  C3H4-P     C3H4-A     C3H3
                     C3H2       C2H5CHO    CH2CH2CHO  RALD3      C2H3CHO
                     CH3COCH3   CH3COCH2   NC4H10     PC4H9      SC4H9
                     IC4H10     IC4H9      TC4H9      IC4H8      IC4H7
                     IC4H7O     C4H8-1     C4H8-2     C4H71-3    C4H71-4
                     C4H71-O    C4H6       C4H5       C4H4       C4H3
                     C4H2       C6H6       FULVENE    C6H5       C5H6
                     C5H5       MCPTD      C10H8      NO         N2O
                     NO2        HNO        HNO2       HONO       HONO2
                     N2H2       H2NN       NH2OH      HNOH       NH3
                     N2H4       N          NO3        NH         NNH
                     NH2        H2NO       N2H3       HCN        HNC
                     HNCO       HCNO       HOCN       CH2NO      CH3NO
                     CH3NO2     CH3ONO     CH3ONO2    CH3CN      CN
                     NCN        NCO        HNCN       H2CN       HCNH
                     C2N2       CH2CN      CH2NH      CH3NH2     CH2NH2
                     CH3NH""",
          reactions='all',
          transport='Mix',
          initial_state=state(temperature=300.0, pressure=OneAtm))

#-------------------------------------------------------------------------------
# Species data
#-------------------------------------------------------------------------------

species(name='AR',
        atoms='Ar:1',
        thermo=(NASA([200.00, 1000.00],
                     [ 2.49988611E+00,  2.13037960E-07,  8.97320772E-10,
                      -2.31395752E-12,  1.30201393E-15, -7.45354481E+02,
                       4.38024367E+00]),
                NASA([1000.00, 6000.00],
                     [ 2.49989176E+00,  1.56134837E-07, -7.76108557E-11,
                       1.52928085E-14, -1.05304493E-18, -7.45328403E+02,
                       4.38029835E+00])),
        transport=gas_transport(geom='atom',
                                diam=3.33,
                                well_depth=136.5),
        note='ATcT3E')

species(name='N2',
        atoms='N:2',
        thermo=(NASA([200.00, 1000.00],
                     [ 3.53603521E+00, -1.58270944E-04, -4.26984251E-07,
                       2.37542590E-09, -1.39708206E-12, -1.04749645E+03,
                       2.94603724E+00]),
                NASA([1000.00, 6000.00],
                     [ 2.93802970E+00,  1.41838030E-03, -5.03281045E-07,
                       8.07555464E-11, -4.76064275E-15, -9.17180990E+02,
                       5.95521985E+00])),
        transport=gas_transport(geom='linear',
                                diam=3.621,
                                well_depth=97.53,
                                polar=1.76,
                                rot_relax=4.0),
        note='ATcT3E')

species(name='HE',
        atoms='He:1',
        thermo=(NASA([200.00, 1000.00],
                     [ 2.49976293E+00,  1.01013432E-06, -8.24578465E-10,
                      -6.85983306E-13,  7.24751856E-16, -7.45340917E+02,
                       9.29800315E-01]),
                NASA([1000.00, 6000.00],
                     [ 2.49985609E+00,  2.19365392E-07, -1.07525085E-10,
                       2.07198041E-14, -1.39358612E-18, -7.45309155E+02,
                       9.29535014E-01])),
        transport=gas_transport(geom='atom',
                                diam=2.576,
                                well_depth=10.2),
        note='ATcT3E')

species(name='H2',
        atoms='H:2',
        thermo=(NASA([200.00, 1000.00],
                     [ 2.37694204E+00,  7.73916922E-03, -1.88735073E-05,
                       1.95517114E-08, -7.17095663E-12, -9.21173081E+02,
                       5.47184736E-01]),
                NASA([1000.00, 6000.00],
                     [ 2.90207649E+00,  8.68992581E-04, -1.65864430E-07,
                       1.90851899E-11, -9.31121789E-16, -7.97948726E+02,
                      -8.45591320E-01])),
        transport=gas_transport(geom='linear',
                                diam=2.92,
                                well_depth=38.0,
                                polar=0.79,
                                rot_relax=280.0),
        note='ATcT3E')

species(name='H',
        atoms='H:1',
        thermo=(NASA([200.00, 1000.00],
                     [ 2.49975925E+00,  6.73824499E-07,  1.11807261E-09,
                      -3.70192126E-12,  2.14233822E-15,  2.54737665E+04,
                      -4.45574009E-01]),
                NASA([1000.00, 6000.00],
                     [ 2.49985211E+00,  2.34582548E-07, -1.16171641E-10,
                       2.25708298E-14, -1.52992005E-18,  2.54738024E+04,
                      -4.45864645E-01])),
        transport=gas_transport(geom='atom',
                                diam=2.05,
                                well_depth=145.0),
        note='ATcT3E')

species(name='O2',
        atoms='O:2',
        thermo=(NASA([200.00, 1000.00],
                     [ 3.78498258E+00, -3.02002233E-03,  9.92029171E-06,
                      -9.77840434E-09,  3.28877702E-12, -1.06413589E+03,
                       3.64780709E+00]),
                NASA([1000.00, 6000.00],
                     [ 3.65980488E+00,  6.59877372E-04, -1.44158172E-07,
                       2.14656037E-11, -1.36503784E-15, -1.21603048E+03,
                       3.42074148E+00])),
        transport=gas_transport(geom='linear',
                                diam=3.458,
                                well_depth=107.4,
                                polar=1.6,
                                rot_relax=3.8),
        note='ATcT3E')

species(name='O',
        atoms='O:1',
        thermo=(NASA([200.00, 1000.00],
                     [ 3.15906526E+00, -3.21509999E-03,  6.49255543E-06,
                      -5.98755115E-09,  2.06876117E-12,  2.91298453E+04,
                       2.09078344E+00]),
                NASA([1000.00, 6000.00],
                     [ 2.55160087E+00, -3.83085457E-05,  8.43197478E-10,
                       4.01267136E-12, -4.17476574E-16,  2.92287628E+04,
                       4.87617014E+00])),
        transport=gas_transport(geom='atom',
                                diam=2.75,
                                well_depth=80.0),
        note='ATcT3E')

species(name='H2O',
        atoms='H:2 O:1',
        thermo=(NASA([200.00, 1000.00],
                     [ 4.20147551E+00, -2.05583546E-03,  6.56547207E-06,
                      -5.52906960E-09,  1.78282605E-12, -3.02950066E+04,
                      -8.60610906E-01]),
                NASA([1000.00, 6000.00],
                     [ 2.73117512E+00,  2.95136995E-03, -8.35359785E-07,
                       1.26088593E-10, -8.40531676E-15, -2.99169082E+04,
                       6.55183000E+00])),
        transport=gas_transport(geom='nonlinear',
                                diam=2.605,
                                well_depth=572.4,
                                dipole=1.844,
                                rot_relax=4.0),
        note='ATcT3E')

species(name='OH',
        atoms='H:1 O:1',
        thermo=(NASA([200.00, 1000.00],
                     [ 3.97585165E+00, -2.28555291E-03,  4.33442882E-06,
                      -3.59926640E-09,  1.26706930E-12,  3.39341137E+03,
                      -3.55397262E-02]),
                NASA([1000.00, 6000.00],
                     [ 2.84581721E+00,  1.09723818E-03, -2.89121101E-07,
                       4.09099910E-11, -2.31382258E-15,  3.71706610E+03,
                       5.80339915E+00])),
        transport=gas_transport(geom='linear',
                                diam=2.75,
                                well_depth=80.0),
        note='ATcT3E')

species(name='H2O2',
        atoms='H:2 O:2',
        thermo=(NASA([200.00, 1000.00],
                     [ 4.23854160E+00, -2.49610911E-04,  1.59857901E-05,
                      -2.06919945E-08,  8.29766320E-12, -1.76486003E+04,
                       3.58850097E+00]),
                NASA([1000.00, 6000.00],
                     [ 4.54017480E+00,  4.15970971E-03, -1.30876777E-06,
                       2.00823615E-10, -1.15509243E-14, -1.79514029E+04,
                       8.55881745E-01])),
        transport=gas_transport(geom='nonlinear',
                                diam=3.458,
                                well_depth=107.4,
                                rot_relax=3.8),
        note='ATcT3E')

species(name='HO2',
        atoms='H:1 O:2',
        thermo=(NASA([200.00, 1000.00],
                     [ 4.26251250E+00, -4.45642032E-03,  2.05164934E-05,
                      -2.35794011E-08,  9.05614257E-12,  2.62442356E+02,
                       3.88223684E+00]),
                NASA([1000.00, 6000.00],
                     [ 4.10564010E+00,  2.04046836E-03, -3.65877562E-07,
                       1.85973044E-11,  4.98818315E-16,  4.32898769E+01,
                       3.30808126E+00])),
        transport=gas_transport(geom='nonlinear',
                                diam=3.458,
                                well_depth=107.4,
                                rot_relax=1.0),
        note='ATcT3E')

species(name='CO',
        atoms='C:1 O:1',
        thermo=(NASA([200.00, 1000.00],
                     [ 3.59508377E+00, -7.21196937E-04,  1.28238234E-06,
                       6.52429293E-10, -8.21714806E-13, -1.43448968E+04,
                       3.44355598E+00]),
                NASA([1000.00, 6000.00],
                     [ 3.03397274E+00,  1.37328118E-03, -4.96445087E-07,
                       8.10281447E-11, -4.85331749E-15, -1.42586044E+04,
                       6.10076092E+00])),
        transport=gas_transport(geom='linear',
                                diam=3.65,
                                well_depth=98.1,
                                polar=1.95,
                                rot_relax=1.8),
        note='ATcT3E')

species(name='CO2',
        atoms='C:1 O:2',
        thermo=(NASA([200.00, 1000.00],
                     [ 2.20664321E+00,  1.00970086E-02, -9.96338809E-06,
                       5.47155623E-09, -1.27733965E-12, -4.83529864E+04,
                       1.05261943E+01]),
                NASA([1000.00, 6000.00],
                     [ 4.63537470E+00,  2.74559459E-03, -9.98282389E-07,
                       1.61013606E-10, -9.22018642E-15, -4.90203677E+04,
                      -1.92887630E+00])),
        transport=gas_transport(geom='linear',
                                diam=3.763,
                                well_depth=244.0,
                                polar=2.65,
                                rot_relax=2.1),
        note='ATcT3E')

species(name='HOCO',
        atoms='C:1 H:1 O:2',
        thermo=(NASA([200.00, 1000.00],
                     [ 2.92207919E+00,  7.62453859E-03,  3.29884437E-06,
                      -1.07135205E-08,  5.11587057E-12, -2.30281524E+04,
                       1.12925886E+01]),
                NASA([1000.00, 6000.00],
                     [ 5.39206152E+00,  4.11221455E-03, -1.48194900E-06,
                       2.39875460E-10, -1.43903104E-14, -2.38606717E+04,
                      -2.23529091E+00])),
        transport=gas_transport(geom='nonlinear',
                                diam=3.59,
                                well_depth=498.0,
                                rot_relax=2.0),
        note='T05/06')

species(name='CH4',
        atoms='C:1 H:4',
        thermo=(NASA([300.00, 1000.00],
                     [ 5.14911468E+00, -1.36622009E-02,  4.91453921E-05,
                      -4.84246767E-08,  1.66603441E-11, -1.02465983E+04,
                      -4.63848842E+00]),
                NASA([1000.00, 4000.00],
                     [ 1.65326226E+00,  1.00263099E-02, -3.31661238E-06,
                       5.36483138E-10, -3.14696758E-14, -1.00095936E+04,
                       9.90506283E+00])),
        transport=gas_transport(geom='nonlinear',
                                diam=3.746,
                                well_depth=141.4,
                                polar=2.6,
                                rot_relax=13.0))

species(name='CH3',
        atoms='C:1 H:3',
        thermo=(NASA([300.00, 1000.00],
                     [ 3.65717970E+00,  2.12659790E-03,  5.45838830E-06,
                      -6.61810030E-09,  2.46570740E-12,  1.64227160E+04,
                       1.67353540E+00]),
                NASA([1000.00, 4000.00],
                     [ 2.97812060E+00,  5.79785200E-03, -1.97558000E-06,
                       3.07297900E-10, -1.79174160E-14,  1.65095130E+04,
                       4.72247990E+00])),
        transport=gas_transport(geom='linear',
                                diam=3.8,
                                well_depth=144.0))

species(name='CH2',
        atoms='C:1 H:2',
        thermo=(NASA([300.00, 1000.00],
                     [ 3.71757846E+00,  1.27391260E-03,  2.17347251E-06,
                      -3.48858500E-09,  1.65208866E-12,  4.58723866E+04,
                       1.75297945E+00]),
                NASA([1000.00, 4000.00],
                     [ 3.14631886E+00,  3.03671259E-03, -9.96474439E-07,
                       1.50483580E-10, -8.57335515E-15,  4.60412605E+04,
                       4.72341711E+00])),
        transport=gas_transport(geom='linear',
                                diam=3.8,
                                well_depth=144.0))

species(name='CH2(S)',
        atoms='C:1 H:2',
        thermo=(NASA([300.00, 1000.00],
                     [ 4.19331325E+00, -2.33105184E-03,  8.15676451E-06,
                      -6.62985981E-09,  1.93233199E-12,  5.03662246E+04,
                      -7.46734310E-01]),
                NASA([1000.00, 4000.00],
                     [ 3.13501686E+00,  2.89593926E-03, -8.16668090E-07,
                       1.13572697E-10, -6.36262835E-15,  5.05040504E+04,
                       4.06030621E+00])),
        transport=gas_transport(geom='linear',
                                diam=3.8,
                                well_depth=144.0))

species(name='C',
        atoms='C:1',
        thermo=(NASA([200.00, 1000.00],
                     [ 2.55423950E+00, -3.21537720E-04,  7.33792230E-07,
                      -7.32234870E-10,  2.66521440E-13,  8.54426810E+04,
                       4.53130850E+00]),
                NASA([1000.00, 6000.00],
                     [ 2.60558300E+00, -1.95934340E-04,  1.06737220E-07,
                      -1.64239400E-11,  8.18705800E-16,  8.54117420E+04,
                       4.19238680E+00])),
        transport=gas_transport(geom='atom',
                                diam=3.298,
                                well_depth=71.4),
        note='L7/88')

species(name='CH',
        atoms='C:1 H:1',
        thermo=(NASA([300.00, 1000.00],
                     [ 3.48975830E+00,  3.24321600E-04, -1.68997510E-06,
                       3.16284200E-09, -1.40618030E-12,  7.06607550E+04,
                       2.08428410E+00]),
                NASA([1000.00, 4000.00],
                     [ 2.52093690E+00,  1.76536390E-03, -4.61476600E-07,
                       5.92896750E-11, -3.34745010E-15,  7.09948780E+04,
                       7.40518290E+00])),
        transport=gas_transport(geom='linear',
                                diam=2.75,
                                well_depth=80.0))

species(name='CH3O2H',
        atoms='C:1 H:4 O:2',
        thermo=(NASA([300.00, 1000.00],
                     [ 2.90540897E+00,  1.74994735E-02,  5.28243630E-06,
                      -2.52827275E-08,  1.34368212E-11, -1.68894632E+04,
                       1.13741987E+01]),
                NASA([1000.00, 4000.00],
                     [ 7.76538058E+00,  8.61499712E-03, -2.98006935E-06,
                       4.68638071E-10, -2.75339255E-14, -1.82979984E+04,
                      -1.43992663E+01])),
        transport=gas_transport(geom='nonlinear',
                                diam=3.626,
                                well_depth=481.8,
                                rot_relax=1.0))

species(name='CH3O2',
        atoms='C:1 H:3 O:2',
        thermo=(NASA([300.00, 1000.00],
                     [ 3.62497097E+00,  3.59397933E-03,  2.26538097E-05,
                      -2.95391947E-08,  1.11977570E-11,  7.93040410E+01,
                       9.96382194E+00]),
                NASA([1000.00, 4000.00],
                     [ 4.80390863E+00,  9.95844638E-03, -3.85301026E-06,
                       6.84740497E-10, -4.58402955E-14, -7.47135460E+02,
                       1.45281400E+00])),
        transport=gas_transport(geom='nonlinear',
                                diam=3.626,
                                well_depth=481.8,
                                rot_relax=1.0))

species(name='CH3OH',
        atoms='C:1 H:4 O:1',
        thermo=(NASA([300.00, 1000.00],
                     [ 5.65851051E+00, -1.62983419E-02,  6.91938156E-05,
                      -7.58372926E-08,  2.80427550E-11, -2.56119736E+04,
                      -8.97330508E-01]),
                NASA([1000.00, 4000.00],
                     [ 3.52726795E+00,  1.03178783E-02, -3.62892944E-06,
                       5.77448016E-10, -3.42182632E-14, -2.60028834E+04,
                       5.16758693E+00])),
        transport=gas_transport(geom='nonlinear',
                                diam=3.626,
                                well_depth=481.8,
                                rot_relax=1.0))

species(name='CH3O',
        atoms='C:1 H:3 O:1',
        thermo=(NASA([300.00, 1000.00],
                     [ 3.71180502E+00, -2.80463306E-03,  3.76550971E-05,
                      -4.73072089E-08,  1.86588420E-11,  1.30772484E+03,
                       6.57240864E+00]),
                NASA([1000.00, 4000.00],
                     [ 4.75779238E+00,  7.44142474E-03, -2.69705176E-06,
                       4.38090504E-10, -2.63537098E-14,  3.90139164E+02,
                      -1.96680028E+00])),
        transport=gas_transport(geom='nonlinear',
                                diam=3.69,
                                well_depth=417.0,
                                dipole=1.7,
                                rot_relax=2.0))

species(name='CH2OH',
        atoms='C:1 H:3 O:1',
        thermo=(NASA([300.00, 1000.00],
                     [ 4.47832317E+00, -1.35069687E-03,  2.78483707E-05,
                      -3.64867397E-08,  1.47906775E-11, -3.52476728E+03,
                       3.30911984E+00]),
                NASA([1000.00, 4000.00],
                     [ 5.09312037E+00,  5.94758550E-03, -2.06496524E-06,
                       3.23006703E-10, -1.88125052E-14, -4.05813228E+03,
                      -1.84690613E+00])),
        transport=gas_transport(geom='nonlinear',
                                diam=3.69,
                                well_depth=417.0,
                                dipole=1.7,
                                rot_relax=2.0))

species(name='CH2O',
        atoms='C:1 H:2 O:1',
        thermo=(NASA([300.00, 1000.00],
                     [ 4.79372312E+00, -9.90833322E-03,  3.73219990E-05,
                      -3.79285237E-08,  1.31772641E-11, -1.43791953E+04,
                       6.02798058E-01]),
                NASA([1000.00, 4000.00],
                     [ 3.16952665E+00,  6.19320560E-03, -2.25056366E-06,
                       3.65975660E-10, -2.20149458E-14, -1.45486831E+04,
                       6.04207898E+00])),
        transport=gas_transport(geom='nonlinear',
                                diam=3.59,
                                well_depth=498.0,
                                rot_relax=2.0))

species(name='HCO',
        atoms='C:1 H:1 O:1',
        thermo=(NASA([200.00, 1000.00],
                     [ 3.97074749E+00, -1.49121608E-03,  9.54041776E-06,
                      -8.82720349E-09,  2.67645129E-12,  3.84203291E+03,
                       4.44660361E+00]),
                NASA([1000.00, 6000.00],
                     [ 3.85781113E+00,  2.64113950E-03, -7.44177294E-07,
                       1.23313230E-10, -8.88958718E-15,  3.61642883E+03,
                       3.92451197E+00])),
        transport=gas_transport(geom='nonlinear',
                                diam=3.59,
                                well_depth=498.0),
        note='ATcT3E')

species(name='HO2CHO',
        atoms='C:1 H:2 O:3',
        thermo=(NASA([300.00, 1378.00],
                     [ 2.42464726E+00,  2.19706380E-02, -1.68705546E-05,
                       6.25612194E-09, -9.11645843E-13, -3.54828006E+04,
                       1.75027796E+01]),
                NASA([1378.00, 5000.00],
                     [ 9.87503878E+00,  4.64663708E-03, -1.67230522E-06,
                       2.68624413E-10, -1.59595232E-14, -3.80502496E+04,
                      -2.24939155E+01])),
        transport=gas_transport(geom='nonlinear',
                                diam=3.97,
                                well_depth=436.0,
                                rot_relax=2.0),
        note='6/26/95THERM')

species(name='HOCHO',
        atoms='C:1 H:2 O:2',
        thermo=(NASA([200.00, 1000.00],
                     [ 3.89836160E+00, -3.55877950E-03,  3.55205380E-05,
                      -4.38499590E-08,  1.71077690E-11, -4.67706090E+04,
                       7.34953970E+00]),
                NASA([1000.00, 6000.00],
                     [ 4.61383160E+00,  6.44963640E-03, -2.29082510E-06,
                       3.67160470E-10, -2.18736750E-14, -4.75148500E+04,
                       8.47883830E-01])),
        transport=gas_transport(geom='nonlinear',
                                diam=3.97,
                                well_depth=436.0,
                                rot_relax=2.0),
        note='L8/88')

species(name='OCHO',
        atoms='C:1 H:1 O:2',
        thermo=(NASA([200.00, 1000.00],
                     [ 4.68825921E+00, -4.14871834E-03,  2.55066010E-05,
                      -2.84473900E-08,  1.04422559E-11, -1.69867041E+04,
                       4.28426480E+00]),
                NASA([1000.00, 6000.00],
                     [ 4.14394211E+00,  5.59738818E-03, -1.99794019E-06,
                       3.16179193E-10, -1.85614483E-14, -1.72459887E+04,
                       5.07778617E+00])),
        transport=gas_transport(geom='nonlinear',
                                diam=3.59,
                                well_depth=498.0,
                                rot_relax=2.0),
        note='ATCT/A')

species(name='C2H6',
        atoms='C:2 H:6',
        thermo=(NASA([300.00, 1000.00],
                     [ 4.29142572E+00, -5.50154901E-03,  5.99438458E-05,
                      -7.08466469E-08,  2.68685836E-11, -1.15222056E+04,
                       2.66678994E+00]),
                NASA([1000.00, 4000.00],
                     [ 4.04666411E+00,  1.53538802E-02, -5.47039485E-06,
                       8.77826544E-10, -5.23167531E-14, -1.24473499E+04,
                      -9.68698313E-01])),
        transport=gas_transport(geom='nonlinear',
                                diam=4.35,
                                well_depth=247.5,
                                rot_relax=1.5))

species(name='C2H5',
        atoms='C:2 H:5',
        thermo=(NASA([300.00, 1000.00],
                     [ 4.24185905E+00, -3.56905235E-03,  4.82667202E-05,
                      -5.85401009E-08,  2.25804514E-11,  1.29690344E+04,
                       4.44703782E+00]),
                NASA([1000.00, 4000.00],
                     [ 4.32195633E+00,  1.23930542E-02, -4.39680960E-06,
                       7.03519917E-10, -4.18435239E-14,  1.21759475E+04,
                       1.71103809E-01])),
        transport=gas_transport(geom='nonlinear',
                                diam=4.35,
                                well_depth=247.5,
                                rot_relax=1.5))

species(name='C2H5O2H',
        atoms='C:2 H:6 O:2',
        thermo=(NASA([300.00, 1000.00],
                     [ 4.14672004E+00,  9.78668137E-03,  4.91492257E-05,
                      -7.42532076E-08,  3.11169441E-11, -2.14671219E+04,
                       9.84024999E+00]),
                NASA([1000.00, 4000.00],
                     [ 9.58691079E+00,  1.48603589E-02, -5.29787964E-06,
                       8.47317148E-10, -5.03436325E-14, -2.38367900E+04,
                      -2.28310676E+01])),
        transport=gas_transport(geom='nonlinear',
                                diam=4.41,
                                well_depth=470.6,
                                rot_relax=1.5))

species(name='C2H5O2',
        atoms='C:2 H:5 O:2',
        thermo=(NASA([300.00, 1000.00],
                     [ 4.50099327E+00,  6.87965342E-03,  4.74143971E-05,
                      -6.92287127E-08,  2.87395324E-11, -5.39547911E+03,
                       7.91490068E+00]),
                NASA([1000.00, 4000.00],
                     [ 8.88872432E+00,  1.35833179E-02, -4.91116949E-06,
                       7.92343362E-10, -4.73525704E-14, -7.44107388E+03,
                      -1.90789836E+01])),
        transport=gas_transport(geom='nonlinear',
                                diam=4.41,
                                well_depth=470.6,
                                rot_relax=1.5))

species(name='C2H4',
        atoms='C:2 H:4',
        thermo=(NASA([300.00, 1000.00],
                     [ 3.95920063E+00, -7.57051373E-03,  5.70989993E-05,
                      -6.91588352E-08,  2.69884190E-11,  5.08977598E+03,
                       4.09730213E+00]),
                NASA([1000.00, 4000.00],
                     [ 3.99182724E+00,  1.04833908E-02, -3.71721342E-06,
                       5.94628366E-10, -3.53630386E-14,  4.26865851E+03,
                      -2.69081762E-01])),
        transport=gas_transport(geom='nonlinear',
                                diam=3.496,
                                well_depth=238.4,
                                rot_relax=1.5))

species(name='C2H3',
        atoms='C:2 H:3',
        thermo=(NASA([300.00, 1000.00],
                     [ 3.36377642E+00,  2.65765722E-04,  2.79620704E-05,
                      -3.72986942E-08,  1.51590176E-11,  3.44749589E+04,
                       7.91510092E+00]),
                NASA([1000.00, 4000.00],
                     [ 4.15026763E+00,  7.54021341E-03, -2.62997847E-06,
                       4.15974048E-10, -2.45407509E-14,  3.38566380E+04,
                       1.72812235E+00])),
        transport=gas_transport(geom='nonlinear',
                                diam=3.721,
                                well_depth=265.3,
                                rot_relax=1.0))

species(name='C2H2',
        atoms='C:2 H:2',
        thermo=(NASA([300.00, 1000.00],
                     [ 8.08679682E-01,  2.33615762E-02, -3.55172234E-05,
                       2.80152958E-08, -8.50075165E-12,  2.64289808E+04,
                       1.39396761E+01]),
                NASA([1000.00, 4000.00],
                     [ 4.65878489E+00,  4.88396667E-03, -1.60828888E-06,
                       2.46974544E-10, -1.38605959E-14,  2.57594042E+04,