"""
 THE OxidatiON Of HydrOgeN CyaNide aNd related CHEMistry
 P. Dagaut, P. GlARbOrg, aNd M.U. Alzueta
 PrOg. ENergy COMbust. SCi. 34(1), 1-46 (2008).  Http://dx.dOi.Org/10.1016/j.peCs.2007.02.004
NOte: mecH H2 AlaN+Dagaut+OH* AlaN mecH1.0
 mecH1.1= additiON Of NO2 cHemistry frOm
MatHieu et al, H2/NO2 paper, 2013.
WHeN duplicate reactiONs, kept frOm tHe additiON but limited tO NO aNd NO2
"""

units(length='cm', time='s', quantity='mol', act_energy='cal/mol')

ideal_gas(name='gas',
          elements="C H O N Ar He",
          species="""OH*     HCN     HNCO    NO      N2O     CO      CO2
                     HNC     HCO     CH2O    HO2CHO  O2CHO   OCHO    O2
                     H2      AR      H       O       OH      HO2     H2O
                     H2O2    NO2     NH3     HNO     HON     HONO    H2NO
                     N       NNH     NH2     NH      CN      NCO     NCCN
                     HOCN    HCNO    NCN     HE      HNO2    N2O4    N2O3
                     CH      H2CN    HCNH    HNOH    NO3     HONO2   N2
                     CH4     C2H6    N2H4    N2H3    N2H2""",
          reactions='all',
          transport='Mix',
          initial_state=state(temperature=300.0, pressure=OneAtm))

#-------------------------------------------------------------------------------
# Species data
#-------------------------------------------------------------------------------

species(name='OH*',
        atoms='H:1 O:1',
        thermo=(NASA([300.00, 1000.00],
                     [ 3.63726600E+00,  1.85091000E-04, -1.67616460E-06,
                       2.38720200E-09, -8.43144200E-13,  5.00213000E+04,
                       1.35886050E+00]),
                NASA([1000.00, 5000.00],
                     [ 2.88273000E+00,  1.01397430E-03, -2.27687700E-07,
                       2.17468300E-11, -5.12630500E-16,  5.02650000E+04,
                       5.59571200E+00])),
        transport=gas_transport(geom='linear',
                                diam=2.75,
                                well_depth=80.0),
        note='121286')

species(name='HCN',
        atoms='C:1 H:1 N:1',
        thermo=(NASA([300.00, 1000.00],
                     [ 2.41778700E+00,  9.03185600E-03, -1.10772700E-05,
                       7.98014100E-09, -2.31114100E-12,  1.50104400E+04,
                       8.22289100E+00]),
                NASA([1000.00, 4000.00],
                     [ 3.42645700E+00,  3.92419000E-03, -1.60113800E-06,
                       3.16196600E-10, -2.43285000E-14,  1.48555200E+04,
                       3.60779500E+00])),
        transport=gas_transport(geom='linear',
                                diam=3.63,
                                well_depth=569.0,
                                rot_relax=1.0),
        note='110193')

species(name='HNCO',
        atoms='C:1 H:1 N:1 O:1',
        thermo=(NASA([300.00, 1000.00],
                     [ 3.49918800E+00,  6.26365800E-03,  3.12576800E-06,
                      -8.62520000E-09,  3.91337200E-12, -1.52332800E+04,
                       6.74499300E+00]),
                NASA([1000.00, 5000.00],
                     [ 5.32884400E+00,  4.21433700E-03, -1.64739300E-06,
                       3.01842200E-10, -2.08448000E-14, -1.58921500E+04,
                      -3.45005000E+00])),
        transport=gas_transport(geom='nonlinear',
                                diam=3.828,
                                well_depth=232.4,
                                rot_relax=1.0))

species(name='NO',
        atoms='N:1 O:1',
        thermo=(NASA([300.00, 1000.00],
                     [ 3.37654200E+00,  1.25306300E-03, -3.30275100E-06,
                       5.21781000E-09, -2.44626300E-12,  9.81796100E+03,
                       5.82959000E+00]),
                NASA([1000.00, 5000.00],
                     [ 3.24543500E+00,  1.26913800E-03, -5.01589000E-07,
                       9.16928300E-11, -6.27541900E-15,  9.80084000E+03,
                       6.41729400E+00])),
        transport=gas_transport(geom='linear',
                                diam=3.621,
                                well_depth=97.53,
                                polar=1.76,
                                rot_relax=4.0),
        note='121286')

species(name='N2O',
        atoms='N:2 O:1',
        thermo=(NASA([300.00, 1000.00],
                     [ 2.54305800E+00,  9.49219300E-03, -9.79277500E-06,
                       6.26384500E-09, -1.90182600E-12,  8.76510000E+03,
                       9.51122200E+00]),
                NASA([1000.00, 5000.00],
                     [ 4.71897700E+00,  2.87371400E-03, -1.19749600E-06,
                       2.25055200E-10, -1.57533700E-14,  8.16581100E+03,
                      -1.65725000E+00])),
        transport=gas_transport(geom='linear',
                                diam=3.828,
                                well_depth=232.4,
                                rot_relax=1.0),
        note='121286')

species(name='CO',
        atoms='C:1 O:1',
        thermo=(NASA([200.00, 1000.00],
                     [ 3.57953350E+00, -6.10353690E-04,  1.01681430E-06,
                       9.07005860E-10, -9.04424490E-13, -1.43440860E+04,
                       3.50840930E+00]),
                NASA([1000.00, 6000.00],
                     [ 3.04848590E+00,  1.35172810E-03, -4.85794050E-07,
                       7.88536440E-11, -4.69807460E-15, -1.42661170E+04,
                       6.01709770E+00])),
        transport=gas_transport(geom='linear',
                                diam=3.65,
                                well_depth=98.1,
                                polar=1.95,
                                rot_relax=1.8),
        note='RUS79')

species(name='CO2',
        atoms='C:1 O:2',
        thermo=(NASA([200.00, 1000.00],
                     [ 2.35681300E+00,  8.98412990E-03, -7.12206320E-06,
                       2.45730080E-09, -1.42885480E-13, -4.83719710E+04,
                       9.90090350E+00]),
                NASA([1000.00, 6000.00],
                     [ 4.63651110E+00,  2.74145690E-03, -9.95897590E-07,
                       1.60386660E-10, -9.16198570E-15, -4.90249040E+04,
                      -1.93489550E+00])),
        transport=gas_transport(geom='linear',
                                diam=3.763,
                                well_depth=244.0,
                                polar=2.65,
                                rot_relax=2.1),
        note='L7/88')

species(name='HNC',
        atoms='C:1 H:1 N:1',
        thermo=(NASA([300.00, 1500.00],
                     [ 3.59237700E+00,  5.56134000E-03, -5.93682300E-06,
                       3.78232900E-09, -9.36509200E-13,  2.22826802E+04,
                       2.73216000E+00]),
                NASA([1500.00, 5000.00],
                     [ 5.28346400E+00,  1.09247600E-03, -1.17086500E-07,
                      -2.30867200E-11,  3.95067300E-15,  2.16142302E+04,
                      -6.38821800E+00])),
        transport=gas_transport(geom='linear',
                                diam=3.63,
                                well_depth=569.0,
                                rot_relax=1.0),
        note='46.8')

species(name='HCO',
        atoms='C:1 H:1 O:1',
        thermo=(NASA([200.00, 1000.00],
                     [ 4.23754610E+00, -3.32075257E-03,  1.40030264E-05,
                      -1.34239995E-08,  4.37416208E-12,  3.87241185E+03,
                       3.30834869E+00]),
                NASA([1000.00, 6000.00],
                     [ 3.92001542E+00,  2.52279324E-03, -6.71004164E-07,
                       1.05615948E-10, -7.43798261E-15,  3.65342928E+03,
                       3.58077056E+00])),
        transport=gas_transport(geom='nonlinear',
                                diam=3.59,
                                well_depth=498.0),
        note='T5/03')

species(name='CH2O',
        atoms='C:1 H:2 O:1',
        thermo=(NASA([200.00, 1000.00],
                     [ 4.79372312E+00, -9.90833322E-03,  3.73219990E-05,
                      -3.79285237E-08,  1.31772641E-11, -1.43791953E+04,
                       6.02798058E-01]),
                NASA([1000.00, 6000.00],
                     [ 3.16952665E+00,  6.19320560E-03, -2.25056366E-06,
                       3.65975660E-10, -2.20149458E-14, -1.45486831E+04,
                       6.04207898E+00])),
        transport=gas_transport(geom='nonlinear',
                                diam=3.59,
                                well_depth=498.0,
                                rot_relax=2.0),
        note='T5/11')

species(name='HO2CHO',
        atoms='C:1 H:2 O:3',
        thermo=(NASA([300.00, 1378.00],
                     [ 2.42464726E+00,  2.19706380E-02, -1.68705546E-05,
                       6.25612194E-09, -9.11645843E-13, -3.54828006E+04,
                       1.75027796E+01]),
                NASA([1378.00, 5000.00],
                     [ 9.87503878E+00,  4.64663708E-03, -1.67230522E-06,
                       2.68624413E-10, -1.59595232E-14, -3.80502496E+04,
                      -2.24939155E+01])),
        transport=gas_transport(geom='nonlinear',
                                diam=3.97,
                                well_depth=436.0,
                                rot_relax=2.0),
        note='6/26/95THERM')

species(name='O2CHO',
        atoms='C:1 H:1 O:3',
        thermo=(NASA([300.00, 1368.00],
                     [ 3.96059309E+00,  1.06002279E-02, -5.25713351E-06,
                       1.01716726E-09, -2.87487602E-14, -1.73599383E+04,
                       1.17807483E+01]),
                NASA([1368.00, 5000.00],
                     [ 7.24075139E+00,  4.63312951E-03, -1.63693995E-06,
                       2.59706693E-10, -1.52964699E-14, -1.87027618E+04,
                      -6.49547212E+00])),
        transport=gas_transport(geom='nonlinear',
                                diam=3.97,
                                well_depth=436.0,
                                rot_relax=2.0),
        note='6/26/95THERM')

species(name='OCHO',
        atoms='C:1 H:1 O:2',
        thermo=(NASA([200.00, 1000.00],
                     [ 4.68825921E+00, -4.14871834E-03,  2.55066010E-05,
                      -2.84473900E-08,  1.04422559E-11, -1.69867041E+04,
                       4.28426480E+00]),
                NASA([1000.00, 6000.00],
                     [ 4.14394211E+00,  5.59738818E-03, -1.99794019E-06,
                       3.16179193E-10, -1.85614483E-14, -1.72459887E+04,
                       5.07778617E+00])),
        transport=gas_transport(geom='nonlinear',
                                diam=3.59,
                                well_depth=498.0,
                                rot_relax=2.0),
        note='ATCT/A')

species(name='O2',
        atoms='O:2',
        thermo=(NASA([200.00, 1000.00],
                     [ 3.78245636E+00, -2.99673416E-03,  9.84730201E-06,
                      -9.68129509E-09,  3.24372837E-12, -1.06394356E+03,
                       3.65767573E+00]),
                NASA([1000.00, 6000.00],
                     [ 3.66096065E+00,  6.56365811E-04, -1.41149627E-07,
                       2.05797935E-11, -1.29913436E-15, -1.21597718E+03,
                       3.41536279E+00])),
        transport=gas_transport(geom='linear',
                                diam=3.458,
                                well_depth=107.4,
                                polar=1.6,
                                rot_relax=3.8),
        note='RUS89')

species(name='H2',
        atoms='H:2',
        thermo=(NASA([200.00, 1000.00],
                     [ 2.34433112E+00,  7.98052075E-03, -1.94781510E-05,
                       2.01572094E-08, -7.37611761E-12, -9.17935173E+02,
                       6.83010238E-01]),
                NASA([1000.00, 6000.00],
                     [ 2.93286575E+00,  8.26608026E-04, -1.46402364E-07,
                       1.54100414E-11, -6.88804800E-16, -8.13065581E+02,
                      -1.02432865E+00])),
        transport=gas_transport(geom='linear',
                                diam=2.92,
                                well_depth=38.0,
                                polar=0.79,
                                rot_relax=280.0),
        note='TPIS78')

species(name='AR',
        atoms='Ar:1',
        thermo=(NASA([200.00, 1000.00],
                     [ 2.50000000E+00,  0.00000000E+00,  0.00000000E+00,
                       0.00000000E+00,  0.00000000E+00, -7.45375000E+02,
                       4.37967491E+00]),
                NASA([1000.00, 6000.00],
                     [ 2.50000000E+00,  0.00000000E+00,  0.00000000E+00,
                       0.00000000E+00,  0.00000000E+00, -7.45375000E+02,
                       4.37967491E+00])),
        transport=gas_transport(geom='atom',
                                diam=3.33,
                                well_depth=136.5),
        note='G5/97')

species(name='H',
        atoms='H:1',
        thermo=(NASA([200.00, 1000.00],
                     [ 2.50000000E+00,  0.00000000E+00,  0.00000000E+00,
                       0.00000000E+00,  0.00000000E+00,  2.54736600E+04,
                      -4.46682850E-01]),
                NASA([1000.00, 6000.00],
                     [ 2.50000000E+00,  0.00000000E+00,  0.00000000E+00,
                       0.00000000E+00,  0.00000000E+00,  2.54736600E+04,
                      -4.46682850E-01])),
        transport=gas_transport(geom='atom',
                                diam=2.05,
                                well_depth=145.0),
        note='L6/94')

species(name='O',
        atoms='O:1',
        thermo=(NASA([200.00, 1000.00],
                     [ 3.16826710E+00, -3.27931884E-03,  6.64306396E-06,
                      -6.12806624E-09,  2.11265971E-12,  2.91222592E+04,
                       2.05193346E+00]),
                NASA([1000.00, 6000.00],
                     [ 2.54363697E+00, -2.73162486E-05, -4.19029520E-09,
                       4.95481845E-12, -4.79553694E-16,  2.92260120E+04,
                       4.92229457E+00])),
        transport=gas_transport(geom='atom',
                                diam=2.75,
                                well_depth=80.0),
        note='L1/90')

species(name='OH',
        atoms='H:1 O:1',
        thermo=(NASA([200.00, 1000.00],
                     [ 3.99198424E+00, -2.40106655E-03,  4.61664033E-06,
                      -3.87916306E-09,  1.36319502E-12,  3.36889836E+03,
                      -1.03998477E-01]),
                NASA([1000.00, 6000.00],
                     [ 2.83853033E+00,  1.10741289E-03, -2.94000209E-07,
                       4.20698729E-11, -2.42289890E-15,  3.69780808E+03,
                       5.84494652E+00])),
        transport=gas_transport(geom='linear',
                                diam=2.75,
                                well_depth=80.0),
        note='IU3/03')

species(name='HO2',
        atoms='H:1 O:2',
        thermo=(NASA([200.00, 1000.00],
                     [ 4.30179807E+00, -4.74912097E-03,  2.11582905E-05,
                      -2.42763914E-08,  9.29225225E-12,  2.64018485E+02,
                       3.71666220E+00]),
                NASA([1000.00, 5000.00],
                     [ 4.17228741E+00,  1.88117627E-03, -3.46277286E-07,
                       1.94657549E-11,  1.76256905E-16,  3.10206839E+01,
                       2.95767672E+00])),
        transport=gas_transport(geom='nonlinear',
                                diam=3.458,
                                well_depth=107.4,
                                rot_relax=1.0),
        note='T1/09')

species(name='H2O',
        atoms='H:2 O:1',
        thermo=(NASA([200.00, 1000.00],
                     [ 4.19863520E+00, -2.03640170E-03,  6.52034160E-06,
                      -5.48792690E-09,  1.77196800E-12, -3.02937260E+04,
                      -8.49009010E-01]),
                NASA([1000.00, 6000.00],
                     [ 2.67703890E+00,  2.97318160E-03, -7.73768890E-07,
                       9.44335140E-11, -4.26899910E-15, -2.98858940E+04,
                       6.88255000E+00])),
        transport=gas_transport(geom='nonlinear',
                                diam=2.605,
                                well_depth=572.4,
                                dipole=1.844,
                                rot_relax=4.0),
        note='L5/89')

species(name='H2O2',
        atoms='H:2 O:2',
        thermo=(NASA([200.00, 1000.00],
                     [ 4.31515149E+00, -8.47390622E-04,  1.76404323E-05,
                      -2.26762944E-08,  9.08950158E-12, -1.77067437E+04,
                       3.27373319E+00]),
                NASA([1000.00, 6000.00],
                     [ 4.57977305E+00,  4.05326003E-03, -1.29844730E-06,
                       1.98211400E-10, -1.13968792E-14, -1.80071775E+04,
                       6.64970694E-01])),
        transport=gas_transport(geom='nonlinear',
                                diam=3.458,
                                well_depth=107.4,
                                rot_relax=3.8),
        note='T8/03')

species(name='NO2',
        atoms='N:1 O:2',
        thermo=(NASA([300.00, 1000.00],
                     [ 2.67060000E+00,  7.83850100E-03, -8.06386500E-06,
                       6.16171500E-09, -2.32015000E-12,  2.89629100E+03,
                       1.16120700E+01]),
                NASA([1000.00, 5000.00],
                     [ 4.68285900E+00,  2.46242900E-03, -1.04225900E-06,
                       1.97690200E-10, -1.39171700E-14,  2.26129200E+03,
                       9.88598500E-01])),
        transport=gas_transport(geom='nonlinear',
                                diam=3.5,
                                well_depth=200.0,
                                rot_relax=1.0),
        note='121286')

species(name='NH3',
        atoms='H:3 N:1',
        thermo=(NASA([300.00, 1000.00],
                     [ 2.20435200E+00,  1.01147600E-02, -1.46526500E-05,
                       1.44723500E-08, -5.32850900E-12, -6.52548800E+03,
                       8.12713800E+00]),
                NASA([1000.00, 5000.00],
                     [ 2.46190400E+00,  6.05916600E-03, -2.00497700E-06,
                       3.13600300E-10, -1.93831700E-14, -6.49327000E+03,
                       7.47209700E+00])),
        transport=gas_transport(geom='nonlinear',
                                diam=2.92,
                                well_depth=481.0,
                                dipole=1.47,
                                rot_relax=10.0),
        note='121386')

species(name='HNO',
        atoms='H:1 N:1 O:1',
        thermo=(NASA([300.00, 1000.00],
                     [ 2.78440300E+00,  6.60964600E-03, -9.30022300E-06,
                       9.43798000E-09, -3.75314600E-12,  1.09187800E+04,
                       9.03562900E+00]),
                NASA([1000.00, 5000.00],
                     [ 3.61514400E+00,  3.21248600E-03, -1.26033700E-06,
                       2.26729800E-10, -1.53623600E-14,  1.06619100E+04,
                       4.81026400E+00])),
        transport=gas_transport(geom='nonlinear',
                                diam=3.492,
                                well_depth=116.7,
                                rot_relax=1.0),
        note='121286')

species(name='HON',
        atoms='H:1 N:1 O:1',
        thermo=(NASA([300.00, 1671.00],
                     [ 3.33656431E+00,  2.67682939E-03,  5.61801303E-07,
                      -1.11362279E-09,  2.84076438E-13,  2.95979751E+04,
                       5.96343188E+00]),
                NASA([1671.00, 5000.00],
                     [ 3.78577430E+00,  2.86062728E-03, -1.02423922E-06,
                       1.64463139E-10, -9.77943616E-15,  2.93319701E+04,
                       3.12193293E+00])),
        transport=gas_transport(geom='nonlinear',
                                diam=3.492,
                                well_depth=116.7,
                                rot_relax=1.0),
        note='HFMELIUS93')

species(name='HONO',
        atoms='H:1 N:1 O:2',
        thermo=(NASA([300.00, 1000.00],
                     [ 2.29041300E+00,  1.40992200E-02, -1.36787200E-05,
                       7.49878000E-09, -1.87690500E-12, -1.04319500E+04,
                       1.32807700E+01]),
                NASA([1000.00, 5000.00],
                     [ 5.48689300E+00,  4.21806500E-03, -1.64914300E-06,
                       2.97187700E-10, -2.02114800E-14, -1.12686500E+04,
                      -2.99700200E+00])),
        transport=gas_transport(geom='nonlinear',
                                diam=3.95,
                                well_depth=350.0,
                                dipole=1.639,
                                rot_relax=1.0),
        note='31787')

species(name='H2NO',
        atoms='H:2 N:1 O:1',
        thermo=(NASA([300.00, 1500.00],
                     [ 2.53059000E+00,  8.59603500E-03, -5.47103000E-06,
                       2.27624900E-09, -4.64807300E-13,  6.86803000E+03,
                       1.12665100E+01]),
                NASA([1500.00, 4000.00],
                     [ 5.67334600E+00,  2.29883700E-03, -1.77444600E-07,
                      -1.10348200E-10,  1.85976200E-14,  5.56932500E+03,
                      -6.15354000E+00])),
        transport=gas_transport(geom='nonlinear',
                                diam=3.492,
                                well_depth=116.7,
                                rot_relax=1.0),
        note='102290')

species(name='N',
        atoms='N:1',
        thermo=(NASA([300.00, 1000.00],
                     [ 2.50307100E+00, -2.18001800E-05,  5.42052900E-08,
                      -5.64756000E-11,  2.09990400E-14,  5.60989000E+04,
                       4.16756600E+00]),
                NASA([1000.00, 5000.00],
                     [ 2.45026800E+00,  1.06614600E-04, -7.46533700E-08,
                       1.87965200E-11, -1.02598400E-15,  5.61160400E+04,
                       4.44875800E+00])),
        transport=gas_transport(geom='atom',
                                diam=3.298,
                                well_depth=71.4),
        note='120186')

species(name='NNH',
        atoms='H:1 N:2',
        thermo=(NASA([250.00, 1000.00],
                     [ 3.50134400E+00,  2.05358700E-03,  7.17041000E-07,
                       4.92134800E-10, -9.67117000E-13,  2.83334700E+04,
                       6.39183700E+00]),
                NASA([1000.00, 4000.00],
                     [ 4.41534200E+00,  1.61438800E-03, -1.63289400E-07,
                      -8.55984600E-11,  1.61479100E-14,  2.78802900E+04,
                       9.04288800E-01])),
        transport=gas_transport(geom='nonlinear',
                                diam=3.798,
                                well_depth=71.4,
                                rot_relax=1.0),
        note='120186')

species(name='NH2',
        atoms='H:2 N:1',
        thermo=(NASA([300.00, 1000.00],
                     [ 3.43249300E+00,  3.29954000E-03, -6.61360000E-06,
                       8.59094700E-09, -3.57204700E-12,  2.17722800E+04,
                       3.09011100E+00]),
                NASA([1000.00, 5000.00],
                     [ 2.96131100E+00,  2.93269900E-03, -9.06360000E-07,
                       1.61725700E-10, -1.20420000E-14,  2.19197700E+04,
                       5.77787800E+00])),
        transport=gas_transport(geom='nonlinear',
                                diam=2.65,
                                well_depth=80.0,
                                polar=2.26,
                                rot_relax=4.0),
        note='121686')

species(name='NH',
        atoms='H:1 N:1',
        thermo=(NASA([200.00, 1000.00],
                     [ 3.49290840E+00,  3.11791970E-04, -1.48904840E-06,
                       2.48164420E-09, -1.03569670E-12,  4.18942940E+04,
                       1.84832770E+00]),
                NASA([1000.00, 6000.00],
                     [ 2.78369290E+00,  1.32984290E-03, -4.24780470E-07,
                       7.83485040E-11, -5.50444700E-15,  4.21345140E+04,
                       5.74077980E+00])),
        transport=gas_transport(geom='linear',
                                diam=2.65,
                                well_depth=80.0,
                                rot_relax=4.0))

species(name='CN',
        atoms='C:1 N:1',
        thermo=(NASA([200.00, 1000.00],
                     [ 3.61256066E+00, -9.53015376E-04,  2.13757148E-06,
                      -3.05000108E-10, -4.70518899E-13,  5.15179601E+04,
                       3.98240466E+00]),
                NASA([1000.00, 6000.00],
                     [ 3.39912871E+00,  7.46548271E-04, -1.41493637E-07,
                       1.86747261E-11, -1.26032174E-15,  5.14665281E+04,
                       4.67150296E+00])),
        transport=gas_transport(geom='linear',
                                diam=3.856,
                                well_depth=75.0,
                                rot_relax=1.0))

species(name='NCO',
        atoms='C:1 N:1 O:1',
        thermo=(NASA([300.00, 1000.00],
                     [ 4.51241900E+00, -3.29807700E-03,  2.19631900E-05,
                      -2.66561400E-08,  1.02691900E-11,  1.39940800E+04,
                       1.73226900E+00]),
                NASA([1000.00, 5000.00],
                     [ 5.15117400E+00,  2.53796600E-03, -1.09480800E-06,
                       2.11298700E-10, -1.50561700E-14,  1.34632900E+04,
                      -3.37189400E+00])),
        transport=gas_transport(geom='linear',
                                diam=3.828,
                                well_depth=232.4,
                                rot_relax=1.0))

species(name='NCCN',
        atoms='C:2 N:2',
        thermo=(NASA([300.00, 1000.00],
                     [ 4.26546000E+00,  1.19225700E-02, -1.34201400E-05,
                       9.19230000E-09, -2.77894000E-12,  3.54789000E+04,
                       1.71300000E+00]),
                NASA([1000.00, 5000.00],
                     [ 6.54800000E+00,  3.98471000E-03, -1.63422000E-06,
                       3.03860000E-10, -2.11100000E-14,  3.49072000E+04,
                      -9.73600000E+00])),
        transport=gas_transport(geom='linear',
                                diam=4.361,
                                well_depth=349.0,
                                rot_relax=1.0))

species(name='HOCN',
        atoms='C:1 H:1 N:1 O:1',
        thermo=(NASA([300.00, 1000.00],
                     [ 4.71619800E+00, -1.22497600E-03,  1.57690700E-05,
                      -1.84474400E-08,  6.84069000E-12, -3.02768700E+03,
                       2.73148600E+00]),
                NASA([1000.00, 5000.00],
                     [ 4.80747500E+00,  4.19183700E-03, -1.61992400E-06,
                       2.94362200E-10, -2.02141900E-14, -3.34431100E+03,
                       8.46607100E-01])),
        transport=gas_transport(geom='nonlinear',
                                diam=3.828,
                                well_depth=232.4,
                                rot_relax=1.0))

species(name='HCNO',
        atoms='C:1 H:1 N:1 O:1',
        thermo=(NASA([300.00, 1000.00],
                     [ 2.48256400E+00,  1.48135600E-02, -1.36879800E-05,
                       6.04690500E-09, -8.77059100E-13,  1.92815400E+04,
                       9.03253300E+00]),
                NASA([1000.00, 5000.00],
                     [ 6.03562000E+00,  4.05933300E-03, -1.58877700E-06,
                       2.92048100E-10, -2.02305700E-14,  1.83398800E+04,
                      -9.10240500E+00])),
        transport=gas_transport(geom='nonlinear',
                                diam=3.828,
                                well_depth=232.4,
                                rot_relax=1.0))

species(name='NCN',
        atoms='C:1 N:2',
        thermo=(NASA([300.00, 1500.00],
                     [ 3.10127000E+00,  9.98167400E-03, -9.92070100E-06,
                       4.75891900E-09, -8.96862600E-13,  5.28575700E+04,
                       7.31757900E+00]),
                NASA([1500.00, 4000.00],
                     [ 6.65212100E+00,  6.10803400E-04, -1.38972700E-07,
                       2.69554900E-12,  1.66994400E-15,  5.17240300E+04,
                      -1.13851700E+01])),
        transport=gas_transport(geom='linear',
                                diam=3.828,
                                well_depth=232.4,
                                rot_relax=1.0),
        note='103190')

species(name='HE',
        atoms='He:1',
        thermo=(NASA([200.00, 1000.00],
                     [ 2.50000000E+00,  0.00000000E+00,  0.00000000E+00,
                       0.00000000E+00,  0.00000000E+00, -7.45375000E+02,
                       9.28723974E-01]),
                NASA([1000.00, 6000.00],
                     [ 2.50000000E+00,  0.00000000E+00,  0.00000000E+00,
                       0.00000000E+00,  0.00000000E+00, -7.45375000E+02,
                       9.28723974E-01])),
        transport=gas_transport(geom='atom',
                                diam=2.576,
                                well_depth=10.2),
        note='G5/97')

species(name='HNO2',
        atoms='H:1 N:1 O:2',
        thermo=(NASA([300.00, 1500.00],
                     [ 1.93483800E+00,  1.01003600E-02, -4.96461600E-06,
                       8.70112000E-10, -2.32413500E-15, -8.10548400E+03,
                       1.47325000E+01]),
                NASA([1500.00, 4000.00],
                     [ 6.47963000E+00,  1.99527400E-03, -1.74038700E-07,
                      -9.69587200E-11,  1.70148000E-14, -9.99927100E+03,
                      -1.06728600E+01])),
        transport=gas_transport(geom='nonlinear',
                                diam=3.95,
                                well_depth=350.0,
                                dipole=1.639,
                                rot_relax=1.0),
        note='103190')

species(name='N2O4',
        atoms='N:2 O:4',