!Master Mechanism:
!! UT-LCS Ver.1.0   2017.11.22
!!
!
!Donor Mechanism:
! GRI-Mech Version 3.0 7/30/99  CHEMKIN-II format
! See README30 file at anonymous FTP site unix.sri.com, directory gri;
! WorldWideWeb home page http://www.me.berkeley.edu/gri_mech/ or
! through http://www.gri.org , under 'Basic  Research',
! for additional information, contacts, and disclaimer
!THERMO
! Insert GRI-Mech thermodynamics here or use in default file
!END
ELEMENTS
O H N HE AR 
C 
END
SPECIES
NO NH3 H2 O2 H 
O OH HO2 H2O H2O2 
NH2 NH N NNH NH2OH 
H2NO HNOH HNO HON NO2 
HONO HNO2 NO3 HONO2 N2O 
N2H4 N2H3 N2H2 H2NN AR 
HE N2 C CH CH2 
CH2(S) CH3 CH4 CO CO2 
HCO CH2O CH2OH CH3O CH3OH 
C2H C2H2 C2H3 C2H4 C2H5 
C2H6 HCCO CH2CO HCCOH CN 
HCN H2CN HCNN HCNO HOCN 
HNCO NCO C3H7 C3H8 CH2CHO 
CH3CHO 
END

THERMO ALL
  300.000  1000.000  5000.000
NO                RUS-89O   1N   1          G     200.0    6000.0  1000.0      1
   3.26071234E0  1.19101135E-3 -4.29122646E-7 6.94481463E-11-4.03295681E-15    2
   9.92143132E3   6.36900518E0   4.21859896E0 -4.63988124E-3  1.10443049E-5    3
 -9.34055507E-9 2.80554874E-12   9.84509964E3   2.28061001E0                   4
NH3               A12-04H   3N   1          G     200.0    6000.0  1000.0      1
   2.09566674E0  6.14750045E-3 -2.00328925E-6 3.01334626E-10-1.71227204E-14    2
  -6.30945436E3   9.59574081E0   4.46075151E0 -5.68781763E-3  2.11411484E-5    3
  -2.0284998E-8 6.89500555E-12  -6.70753514E3  -1.34450793E0                   4
H2                tpis78H   2               G     200.0    6000.0  1000.0      1
   2.93286575E0  8.26608026E-4 -1.46402364E-7 1.54100414E-11  -6.888048E-16    2
  -8.13065581E2  -1.02432865E0   2.34433112E0  7.98052075E-3  -1.9478151E-5    3
  2.01572094E-8-7.37611761E-12  -9.17935173E2  6.83010238E-1                   4
O2                RUS-89O   2               G     200.0    6000.0  1000.0      1
   3.66096065E0  6.56365811E-4 -1.41149627E-7 2.05797935E-11-1.29913436E-15    2
  -1.21597718E3   3.41536279E0   3.78245636E0 -2.99673416E-3  9.84730201E-6    3
 -9.68129509E-9 3.24372837E-12  -1.06394356E3   3.65767573E0                   4
H                 L-6-94H   1               G     200.0    6000.0  1000.0      1
          2.5E0          0.0E0          0.0E0          0.0E0          0.0E0    2
     2.547366E4  -4.4668285E-1          2.5E0          0.0E0          0.0E0    3
          0.0E0          0.0E0     2.547366E4  -4.4668285E-1                   4
O                 L-1-90O   1               G     200.0    6000.0  1000.0      1
   2.54363697E0 -2.73162486E-5  -4.1902952E-9 4.95481845E-12-4.79553694E-16    2
    2.9226012E4   4.92229457E0    3.1682671E0 -3.27931884E-3  6.64306396E-6    3
 -6.12806624E-9 2.11265971E-12   2.91222592E4   2.05193346E0                   4
OH                IU3-03H   1O   1          G     200.0    6000.0  1000.0      1
   2.83853033E0  1.10741289E-3 -2.94000209E-7 4.20698729E-11 -2.4228989E-15    2
   3.69780808E3   5.84494652E0   3.99198424E0 -2.40106655E-3  4.61664033E-6    3
 -3.87916306E-9 1.36319502E-12   3.36889836E3 -1.03998477E-1                   4
HO2               T-1-09H   1O   2          G     200.0    5000.0  1000.0      1
   4.17228741E0  1.88117627E-3 -3.46277286E-7 1.94657549E-11 1.76256905E-16    2
   3.10206839E1   2.95767672E0   4.30179807E0 -4.74912097E-3  2.11582905E-5    3
 -2.42763914E-8 9.29225225E-12   2.64018485E2    3.7166622E0                   4
H2O               L-5-89H   2O   1          G     200.0    6000.0  1000.0      1
    2.6770389E0   2.9731816E-3  -7.7376889E-7  9.4433514E-11 -4.2689991E-15    2
   -2.9885894E4      6.88255E0    4.1986352E0  -2.0364017E-3   6.5203416E-6    3
  -5.4879269E-9   1.771968E-12   -3.0293726E4  -8.4900901E-1                   4
H2O2              T-8-03H   2O   2          G     200.0    6000.0  1000.0      1
   4.57977305E0  4.05326003E-3  -1.2984473E-6   1.982114E-10-1.13968792E-14    2
  -1.80071775E4  6.64970694E-1   4.31515149E0 -8.47390622E-4  1.76404323E-5    3
 -2.26762944E-8 9.08950158E-12  -1.77067437E4   3.27373319E0                   4
NH2               IU3-03H   2N   1          G     200.0    3000.0  1000.0      1
   2.59263049E0  3.47683597E-3 -1.08271624E-6 1.49342558E-10-5.75241187E-15    2
   2.18865421E4   7.90565351E0   4.19198016E0 -2.04602827E-3  6.67756134E-6    3
 -5.24907235E-9 1.55589948E-12   2.14991387E4 -9.04785244E-2                   4
NH                ATcT-AH   1N   1          G     200.0    6000.0  1000.0      1
   2.78372644E0  1.32985888E-3 -4.24785573E-7 7.83494442E-11 -5.5045131E-15    2
   4.23461945E4   5.74084863E0   3.49295037E0   3.1179572E-4 -1.48906628E-6    3
  2.48167402E-9-1.03570916E-12   4.21059722E4   1.84834973E0                   4
N                 L-6-88N   1               G     200.0    6000.0  1000.0      1
    2.4159429E0   1.7489065E-4  -1.1902369E-7  3.0226244E-11 -2.0360983E-15    2
    5.6133775E4    4.6496095E0          2.5E0          0.0E0          0.0E0    3
          0.0E0          0.0E0    5.6104638E4    4.1939088E0                   4
NNH               T-1-06H   1N   2          G     200.0    6000.0  1000.0      1
   3.42744423E0  3.23295234E-3 -1.17296299E-6 1.90508356E-10-1.14491506E-14    2
    2.8806774E4   6.39209233E0   4.25474632E0 -3.45098298E-3  1.37788699E-5    3
 -1.33263744E-8 4.41023397E-12   2.88323793E4   3.28551762E0                   4
NH2OH             ATcT-AH   3O   1N   1     G     200.0    6000.0  1000.0      1
   3.88112502E0  8.15708448E-3 -2.82615576E-6 4.37930933E-10-2.52724604E-14    2
  -6.86018419E3   3.79156136E0   3.21016092E0  6.19671676E-3  1.10594948E-5    3
 -1.96668262E-8  8.8251659E-12  -6.58148481E3   7.93293571E0                   4
H2NO                1510H   2O   1N   1     G     298.0    3000.0  1000.0      1
   3.33719385E0  5.72250531E-3 -2.14985397E-6 3.65983461E-10-2.18615301E-14    2
   6.50621112E3   6.86465421E0   4.07694692E0   2.1917994E-4  9.92160372E-6    3
 -1.02259681E-8 3.26220462E-12   6.48547616E3   3.93185152E0                   4
HNOH              T11-11H   2O   1N   1     G     200.0    6000.0  1000.0      1
   3.98321933E0  4.88846374E-3 -1.65086637E-6 2.55371446E-10-1.48308561E-14    2
   1.05780106E4   3.62582838E0   3.95608248E0  -3.0261102E-3  2.56874396E-5    3
  -3.1564512E-8 1.24084574E-11    1.0919979E4   5.55950983E0                   4
HNO               ATcT-AH   1O   1N   1     G     200.0    6000.0  1000.0      1
   3.16598124E0  2.99958892E-3 -3.94376786E-7-3.85344089E-11 7.07602668E-15    2
   1.17726311E4   7.64511172E0   4.53525574E0 -5.68543377E-3   1.8519854E-5    3
 -1.71881225E-8 5.55818157E-12   1.16183003E4   1.74315886E0                   4
HON               T11-11H   1O   1N   1     G     200.0    6000.0  1000.0      1
   4.00745749E0  2.41824666E-3 -8.13734001E-7 1.25573064E-10-7.28062602E-15    2
   2.43965586E4   4.01091333E0   4.30796097E0 -5.01538487E-3  2.27054537E-5    3
 -2.65676371E-8 1.02998699E-11   2.45850141E4   3.93009562E0                   4
NO2               L-7-88O   2N   1          G     200.0    6000.0  1000.0      1
     4.884754E0   2.1723955E-3  -8.2806909E-7   1.574751E-10 -1.0510895E-14    2
    2.3164982E3  -1.1741695E-1    3.9440312E0   -1.585429E-3   1.6657812E-5    3
  -2.0475426E-8  7.8350564E-12     2.896618E3    6.3119919E0                   4
HONO              T-9-11H   1O   2N   1     G     200.0    6000.0  1000.0      1
   5.79182717E0  3.65162554E-3  -1.2929339E-6 2.06892796E-10-1.23154749E-14    2
  -1.15953895E4  -4.05538852E0   3.21415915E0  8.12778066E-3  1.65998916E-6    3
 -9.52814708E-9 4.87131424E-12  -1.07830727E4   9.82200056E0                   4
HNO2              103190H   1O   2N   1     G     300.0    4000.0  1500.0      1
      6.47963E0    1.995274E-3   -1.740387E-7  -9.695872E-11    1.70148E-14    2
  -7.80950291E3  -1.06771518E1     1.934838E0    1.010036E-2   -4.964616E-6    3
    8.70112E-10  -2.324135E-15  -5.91571591E3   1.47282082E1                   4
NO3               ATcT-AO   3N   1          G     200.0    6000.0  1000.0      1
   7.48347702E0  2.57772064E-3 -1.00945831E-6 1.72314063E-10-1.07154008E-14    2
   6.12990474E3  -1.41618136E1    2.1735933E0  1.04902685E-2  1.10472669E-5    3
 -2.81561867E-8  1.3658396E-11   7.81290905E3    1.4602209E1                   4
HONO2             T-8-03H   1O   3N   1     G     200.0    6000.0  1000.0      1
   8.03098942E0  4.46958589E-3 -1.72459491E-6 2.91556153E-10-1.80102702E-14    2
  -1.92821685E4   -1.6261672E1   1.69329154E0  1.90167702E-2 -8.25176697E-6    3
 -6.06113827E-9 4.65236978E-12  -1.73882411E4   1.71839655E1                   4
N2O               L-7-88O   1N   2          G     200.0    6000.0  1000.0      1
    4.8230729E0   2.6270251E-3  -9.5850872E-7  1.6000712E-10 -9.7752302E-15    2
    8.0734047E3   -2.2017208E0    2.2571502E0   1.1304728E-2  -1.3671319E-5    3
   9.6819803E-9 -2.9307182E-12    8.7417746E3    1.0757992E1                   4
N2H4              121286H   4N   2          G     300.0    5000.0  1000.0      1
     4.977317E0    9.595519E-3   -3.547639E-6   6.124299E-10  -4.029795E-14    2
     9.341219E3     -2.96299E0    6.442606E-2     2.74973E-2   -2.899451E-5    3
     1.74524E-8  -4.422282E-12     1.045192E4     2.127789E1                   4
N2H3              120186H   3N   2          G     300.0    5000.0  1000.0      1
     4.441846E0    7.214271E-3   -2.495684E-6   3.920565E-10   -2.29895E-14    2
     1.664221E4   -4.275205E-1     3.174204E0    4.715907E-3    1.334867E-5    3
   -1.919685E-8   7.487564E-12      1.72727E4     7.557224E0                   4
N2H2              121286H   2N   2          G     300.0    5000.0  1000.0      1
     3.371185E0    6.039968E-3   -2.303854E-6   4.062789E-10  -2.713144E-14    2
     2.418172E4     4.980585E0     1.617999E0    1.306312E-2   -1.715712E-5    3
    1.605608E-8  -6.093639E-12     2.467526E4     1.379467E1                   4
H2NN               M3-96H   2N   2          G     300.0    5000.0  1695.0      1
   3.13531032E0  5.68632569E-3 -1.93983467E-6 3.01290501E-10-1.74978144E-14    2
   3.33678346E4    7.0481584E0   2.88544262E0  4.69495999E-3   7.0198323E-7    3
 -1.53359038E-9 3.79345858E-13    3.3603069E4   8.95096779E0                   4
AR                g-5-97AR  1               G     200.0    6000.0  1000.0      1
          2.5E0          0.0E0          0.0E0          0.0E0          0.0E0    2
     -7.45375E2   4.37967491E0          2.5E0          0.0E0          0.0E0    3
          0.0E0          0.0E0     -7.45375E2   4.37967491E0                   4
HE                g-5-97HE  1               G     200.0    6000.0  1000.0      1
          2.5E0          0.0E0          0.0E0          0.0E0          0.0E0    2
     -7.45375E2  9.28723974E-1          2.5E0          0.0E0          0.0E0    3
          0.0E0          0.0E0     -7.45375E2  9.28723974E-1                   4
N2                G-8-02N   2               G     200.0    6000.0  1000.0      1
   2.95257637E0   1.3969004E-3 -4.92631603E-7 7.86010195E-11-4.60755204E-15    2
  -9.23948688E2   5.87188762E0   3.53100528E0 -1.23660988E-4 -5.02999433E-7    3
  2.43530612E-9-1.40881235E-12  -1.04697628E3   2.96747038E0                   4
C                 L11-88C   1               G     200.0    3500.0  1000.0      1
   2.49266888E0  4.79889284E-5  -7.2433502E-8 3.74291029E-11-4.87277893E-15    2
   8.54512953E4   4.80150373E0   2.55423955E0 -3.21537724E-4  7.33792245E-7    3
-7.32234889E-10 2.66521446E-13   8.54438832E4   4.53130848E0                   4
CH                TPIS79H   1C   1          G     200.0    3500.0  1000.0      1
   2.87846473E0  9.70913681E-4  1.44445655E-7-1.30687849E-10 1.76079383E-14    2
   7.10124364E4   5.48497999E0   3.48981665E0  3.23835541E-4 -1.68899065E-6    3
  3.16217327E-9-1.40609067E-12   7.07972934E4   2.08401108E0                   4
CH2               L-S-93H   2C   1          G     200.0    3500.0  1000.0      1
   2.87410113E0  3.65639292E-3 -1.40894597E-6 2.60179549E-10-1.87727567E-14    2
    4.6263604E4   6.17119324E0   3.76267867E0  9.68872143E-4  2.79489841E-6    3
 -3.85091153E-9 1.68741719E-12   4.60040401E4   1.56253185E0                   4
CH2(S)            L-S-93H   2C   1          G     200.0    3500.0  1000.0      1
   2.29203842E0  4.65588637E-3 -2.01191947E-6    4.17906E-10-3.39716365E-14    2
   5.09259997E4   8.62650169E0   4.19860411E0 -2.36661419E-3   8.2329622E-6    3
 -6.68815981E-9 1.94314737E-12   5.04968163E4 -7.69118967E-1                   4
CH3               L11-89H   3C   1          G     200.0    3500.0  1000.0      1
   2.28571772E0  7.23990037E-3 -2.98714348E-6 5.95684644E-10-4.67154394E-14    2
   1.67755843E4   8.48007179E0    3.6735904E0  2.01095175E-3  5.73021856E-6    3
 -6.87117425E-9 2.54385734E-12   1.64449988E4   1.60456433E0                   4
CH4               L-8-88H   4C   1          G     200.0    3500.0  1000.0      1
   7.4851495E-2  1.33909467E-2 -5.73285809E-6  1.22292535E-9 -1.0181523E-13    2
  -9.46834459E3    1.8437318E1   5.14987613E0 -1.36709788E-2  4.91800599E-5    3
 -4.84743026E-8 1.66693956E-11  -1.02466476E4  -4.64130376E0                   4
CO                TPIS79O   1C   1          G     200.0    3500.0  1000.0      1
   2.71518561E0  2.06252743E-3 -9.98825771E-7 2.30053008E-10-2.03647716E-14    2
  -1.41518724E4   7.81868772E0   3.57953347E0  -6.1035368E-4  1.01681433E-6    3
 9.07005884E-10-9.04424499E-13   -1.4344086E4   3.50840928E0                   4
CO2               L-7-88O   2C   1          G     200.0    3500.0  1000.0      1
   3.85746029E0  4.41437026E-3 -2.21481404E-6 5.23490188E-10-4.72084164E-14    2
   -4.8759166E4   2.27163806E0   2.35677352E0  8.98459677E-3 -7.12356269E-6    3
  2.45919022E-9-1.43699548E-13  -4.83719697E4   9.90105222E0                   4
HCO               L12-89H   1O   1C   1     G     200.0    3500.0  1000.0      1
   2.77217438E0  4.95695526E-3 -2.48445613E-6 5.89161778E-10-5.33508711E-14    2
   4.01191815E3   9.79834492E0   4.22118584E0 -3.24392532E-3  1.37799446E-5    3
 -1.33144093E-8 4.33768865E-12   3.83956496E3   3.39437243E0                   4
CH2O              L-8-88H   2O   1C   1     G     200.0    3500.0  1000.0      1
   1.76069008E0  9.20000082E-3 -4.42258813E-6  1.00641212E-9 -8.8385564E-14    2
  -1.39958323E4    1.3656323E1   4.79372315E0 -9.90833369E-3  3.73220008E-5    3
 -3.79285261E-8 1.31772652E-11  -1.43089567E4    6.028129E-1                   4
CH2OH             GUNL93H   3O   1C   1     G     200.0    3500.0  1000.0      1
   3.69266569E0  8.64576797E-3  -3.7510112E-6 7.87234636E-10-6.48554201E-14    2
  -3.24250627E3   5.81043215E0   3.86388918E0  5.59672304E-3  5.93271791E-6    3
 -1.04532012E-8 4.36967278E-12  -3.19391367E3   5.47302243E0                   4
CH3O              121686H   3O   1C   1     G     300.0    3000.0  1000.0      1
     3.770799E0    7.871497E-3   -2.656384E-6   3.944431E-10  -2.112616E-14    2
    1.2783252E2     2.929575E0     2.106204E0    7.216595E-3    5.338472E-6    3
   -7.377636E-9    2.07561E-12     9.786011E2    1.3152177E1                   4
CH3OH             L-8-88H   4O   1C   1     G     200.0    3500.0  1000.0      1
   1.78970791E0  1.40938292E-2 -6.36500835E-6  1.38171085E-9 -1.1706022E-13    2
  -2.53748747E4   1.45023623E1   5.71539582E0 -1.52309129E-2  6.52441155E-5    3
 -7.10806889E-8 2.61352698E-11  -2.56427656E4  -1.50409823E0                   4
C2H               L-1-91H   1C   2          G     200.0    3500.0  1000.0      1
   3.16780652E0  4.75221902E-3 -1.83787077E-6 3.04190252E-10 -1.7723277E-14    2
    6.7121065E4   6.63589475E0   2.88965733E0  1.34099611E-2 -2.84769501E-5    3
  2.94791045E-8-1.09331511E-11   6.68393932E4   6.22296438E0                   4
C2H2              L-1-91H   2C   2          G     200.0    3500.0  1000.0      1
   4.14756964E0  5.96166664E-3 -2.37294852E-6 4.67412171E-10-3.61235213E-14    2
   2.59359992E4  -1.23028121E0  8.08681094E-1  2.33615629E-2 -3.55171815E-5    3
  2.80152437E-8-8.50072974E-12   2.64289807E4   1.39397051E1                   4
C2H3              L-2-92H   3C   2          G     200.0    3500.0  1000.0      1
     3.016724E0  1.03302292E-2 -4.68082349E-6  1.01763288E-9-8.62607041E-14    2
   3.46128739E4   7.78732378E0   3.21246645E0  1.51479162E-3  2.59209412E-5    3
 -3.57657847E-8 1.47150873E-11   3.48598468E4   8.51054025E0                   4
C2H4              L-1-91H   4C   2          G     200.0    3500.0  1000.0      1
   2.03611116E0  1.46454151E-2 -6.71077915E-6  1.47222923E-9-1.25706061E-13    2
   4.93988614E3   1.03053693E1   3.95920148E0 -7.57052247E-3  5.70990292E-5    3
 -6.91588753E-8 2.69884373E-11   5.08977593E3   4.09733096E0                   4
C2H5              L12-92H   5C   2          G     200.0    3500.0  1000.0      1
   1.95465642E0  1.73972722E-2 -7.98206668E-6  1.75217689E-9-1.49641576E-13    2
     1.285752E4   1.34624343E1   4.30646568E0 -4.18658892E-3  4.97142807E-5    3
 -5.99126606E-8 2.30509004E-11   1.28416265E4   4.70720924E0                   4
C2H6              L-8-88H   6C   2          G     200.0    3500.0  1000.0      1
    1.0718815E0  2.16852677E-2 -1.00256067E-5  2.21412001E-9 -1.9000289E-13    2
  -1.14263932E4   1.51156107E1   4.29142492E0  -5.5015427E-3  5.99438288E-5    3
 -7.08466285E-8 2.68685771E-11  -1.15222055E4   2.66682316E0                   4
HCCO              SRIC91H   1O   1C   2     G     300.0    4000.0  1000.0      1
    5.6282058E0   4.0853401E-3  -1.5934547E-6  2.8626052E-10 -1.9407832E-14    2
    1.9327215E4   -3.9302595E0    2.2517214E0   1.7655021E-2  -2.3729101E-5    3
   1.7275759E-8 -5.0664811E-12    2.0059449E4    1.2490417E1                   4
CH2CO             L-5-90H   2O   1C   2     G     200.0    3500.0  1000.0      1
   4.51129732E0  9.00359745E-3 -4.16939635E-6 9.23345882E-10-7.94838201E-14    2
  -7.55105311E3  6.32247205E-1    2.1358363E0  1.81188721E-2 -1.73947474E-5    3
  9.34397568E-9-2.01457615E-12  -7.04291804E3    1.2215648E1                   4
HCCOH             -SRI91H   2O   1C   2     G     300.0    5000.0  1000.0      1
    5.9238291E0     6.79236E-3  -2.5658564E-6  4.4987841E-10 -2.9940101E-14    2
     7.264626E3   -7.6017742E0    1.2423733E0   3.1072201E-2  -5.0866864E-5    3
   4.3137131E-8 -1.4014594E-11    8.0316143E3    1.3874319E1                   4
CN                 HBH92C   1N   1          G     200.0    6000.0  1000.0      1
    3.7459805E0   4.3450775E-5   2.9705984E-7 -6.8651806E-11  4.4134173E-15    2
    5.1536188E4    2.7867601E0    3.6129351E0  -9.5551327E-4   2.1442977E-6    3
 -3.1516323E-10 -4.6430356E-13     5.170834E4    3.9804995E0                   4
HCN               GRI-98H   1C   1N   1     G     200.0    6000.0  1000.0      1
    3.8022392E0   3.1464228E-3  -1.0632185E-6  1.6619757E-10  -9.799757E-15    2
    1.4407292E4    1.5754601E0    2.2589886E0    1.005117E-2  -1.3351763E-5    3
   1.0092349E-8 -3.0089028E-12    1.4712633E4    8.9164419E0                   4
H2CN              -41687H   2C   1N   1     G     300.0    4000.0  1000.0      1
     5.209703E0   2.9692911E-3  -2.8555891E-7   -1.63555E-10  3.0432589E-14    2
    2.7677109E4    -4.444478E0     2.851661E0   5.6952331E-3     1.07114E-6    3
   -1.622612E-9 -2.3511081E-13     2.863782E4    8.9927511E0                   4
HCNN              SRI-94H   1C   1N   2     G     300.0    5000.0  1000.0      1
    5.8946362E0   3.9895959E-3   -1.598238E-6  2.9249395E-10 -2.0094686E-14    2
    5.3452941E4   -5.1030502E0    2.5243194E0   1.5960619E-2  -1.8816354E-5    3
    1.212554E-8 -3.2357378E-12    5.4261984E4     1.167587E1                   4
HCNO              BDEA94H   1O   1C   1N   1G     300.0    5000.0  1382.0      1
   6.59860456E0  3.02778626E-3 -1.07704346E-6 1.71666528E-10-1.01439391E-14    2
   1.79661339E4  -1.03306599E1   2.64727989E0  1.27505342E-2 -1.04794236E-5    3
  4.41432836E-9-7.57521466E-13   1.92990252E4   1.07332972E1                   4
HOCN              BDEA94H   1O   1C   1N   1G     300.0    5000.0  1368.0      1
   5.89784885E0  3.16789393E-3 -1.11801064E-6 1.77243144E-10-1.04339177E-14    2
  -3.70653331E3  -6.18167825E0   3.78604952E0  6.88667922E-3 -3.21487864E-6    3
 5.17195767E-10 1.19360788E-14    -2.826984E3   5.63292162E0                   4
HNCO              BDEA94H   1O   1C   1N   1G     300.0    5000.0  1478.0      1
   6.22395134E0  3.17864004E-3 -1.09378755E-6 1.70735163E-10-9.95021955E-15    2
  -1.66599344E4  -8.38224741E0   3.63096317E0  7.30282357E-3 -2.28050003E-6    3
-6.61271298E-10 3.62235752E-13  -1.55873636E4   6.19457727E0                   4
NCO                EA-93O   1C   1N   1     G     200.0    6000.0  1000.0      1
    5.1521845E0   2.3051761E-3  -8.8033153E-7  1.4789098E-10 -9.0977996E-15    2
    1.4004123E4    -2.544266E0    2.8269308E0   8.8051688E-3  -8.3866134E-6    3
   4.8016964E-9 -1.3313595E-12    1.4682477E4    9.5504646E0                   4
C3H7              L-9-84H   7C   3          G     300.0    5000.0  1000.0      1
    7.7026987E0   1.6044203E-2   -5.283322E-6   7.629859E-10 -3.9392284E-14    2
    8.2984336E3    -1.548018E1    1.0515518E0    2.599198E-2    2.380054E-6    3
  -1.9609569E-8   9.373247E-12    1.0631863E4    2.1122559E1                   4
C3H8              L-4-85H   8C   3          G     300.0    5000.0  1000.0      1
    7.5341368E0   1.8872239E-2  -6.2718491E-6  9.1475649E-10 -4.7838069E-14    2
   -1.6467516E4   -1.7892349E1   9.3355381E-1   2.6424579E-2   6.1059727E-6    3
  -2.1977499E-8  9.5149253E-12    -1.395852E4    1.9201691E1                   4
CH2CHO            SAND86H   3O   1C   2     G     300.0    5000.0  1000.0      1
      5.97567E0    8.130591E-3   -2.743624E-6   4.070304E-10  -2.176017E-14    2
     4.903218E2    -5.045251E0     3.409062E0   1.0738574E-2    1.891492E-6    3
   -7.158583E-9   2.867385E-12    1.5214766E3      9.55829E0                   4
CH3CHO            L-8-88H   4O   1C   2     G     200.0    6000.0  1000.0      1
    5.4041108E0   1.1723059E-2  -4.2263137E-6  6.8372451E-10 -4.0984863E-14    2
   -2.2593122E4   -3.4807917E0    4.7294595E0  -3.1932858E-3   4.7534921E-5    3
  -5.7458611E-8  2.1931112E-11   -2.1572878E4    4.1030159E0                   4
END

TRANSPORT ALL
NO 1 97.53 3.621 0.0 1.76 4.0
NH3 2 481.0 2.92 1.47 0.0 10.0
H2 1 38.0 2.92 0.0 0.79 280.0
O2 1 107.4 3.458 0.0 1.6 3.8
H 0 145.0 2.05 0.0 0.0 0.0
O 0 80.0 2.75 0.0 0.0 0.0
OH 1 80.0 2.75 0.0 0.0 0.0
!(*)[dat]
HO2 2 107.4 3.458 0.0 0.0 1.0
H2O 2 572.4 2.605 1.844 0.0 4.0
H2O2 2 107.4 3.458 0.0 0.0 3.8
NH2 2 80.0 2.65 0.0 2.26 4.0
NH 1 80.0 2.65 0.0 0.0 4.0
!(*)[dat]
N 0 71.4 3.298 0.0 0.0 0.0
!(*)[dat]
NNH 2 71.4 3.798 0.0 0.0 1.0
!=HNOH[dat]
NH2OH 2 116.7 3.492 0.0 0.0 1.0
! JAM[dat]
H2NO 2 116.7 3.492 0.0 0.0 1.0
! JAM[dat]
HNOH 2 116.7 3.492 0.0 0.0 1.0
!(*)[dat]
HNO 2 116.7 3.492 0.0 0.0 1.0
!=HNO[dat]
HON 2 116.7 3.492 0.0 0.0 1.0
!(*)[dat]
NO2 2 200.0 3.5 0.0 0.0 1.0
!=HNNO[dat]
HONO 2 232.4 3.828 0.0 0.0 1.0
!(OIS)=HSO2[dat]
HNO2 2 252.0 4.29 0.0 0.0 1.0
!=SO3[dat]
NO3 2 378.4 4.175 0.0 0.0 1.0
!=SO3=HNO3[dat]
HONO2 2 378.4 4.175 0.0 0.0 1.0
!(*)[dat]
N2O 1 232.4 3.828 0.0 0.0 1.0
N2H4 2 205.0 4.23 0.0 4.26 1.5
!(*)[dat]
N2H3 2 200.0 3.9 0.0 0.0 1.0
!(*)[dat]
N2H2 2 71.4 3.798 0.0 0.0 1.0
!=N2H2[dat]
H2NN 2 71.4 3.798 0.0 0.0 1.0
! Supporting material of Tian et al. Combust. Flame 2009, 156, 1413-26.[dat]
! edited 20/06/00[dat]
!from Konnov06[dat]
AR 0 136.5 3.33 0.0 0.0 0.0
!(*)[dat]
HE 0 10.2 2.576 0.0 0.0 0.0
N2 1 97.53 3.621 0.0 1.76 4.0
! *[dat]
C 0 71.4 3.298 0.0 0.0 0.0
CH 1 80.0 2.75 0.0 0.0 0.0
CH2 1 144.0 3.8 0.0 0.0 0.0
CH2(S) 1 144.0 3.8 0.0 0.0 0.0
CH3 1 144.0 3.8 0.0 0.0 0.0
CH4 2 141.4 3.746 0.0 2.6 13.0
CO 1 98.1 3.65 0.0 1.95 1.8
CO2 1 244.0 3.763 0.0 2.65 2.1
HCO 2 498.0 3.59 0.0 0.0 0.0
CH2O 2 498.0 3.59 0.0 0.0 2.0
CH2OH 2 417.0 3.69 1.7 0.0 2.0
CH3O 2 417.0 3.69 1.7 0.0 2.0
! SVE[dat]
CH3OH 2 481.8 3.626 0.0 0.0 1.0
C2H 1 209.0 4.1 0.0 0.0 2.5
C2H2 1 209.0 4.1 0.0 0.0 2.5
! *[dat]
C2H3 2 209.0 4.1 0.0 0.0 1.0
C2H4 2 280.8 3.971 0.0 0.0 1.5
C2H5 2 252.3 4.302 0.0 0.0 1.5
C2H6 2 252.3 4.302 0.0 0.0 1.5
! *[dat]
HCCO 2 150.0 2.5 0.0 0.0 1.0
CH2CO 2 436.0 3.97 0.0 0.0 2.0
HCCOH 2 436.0 3.97 0.0 0.0 2.0
! OIS[dat]
CN 1 75.0 3.856 0.0 0.0 1.0
! OIS[dat]
HCN 1 569.0 3.63 0.0 0.0 1.0
! os/jm[dat]
H2CN 1 569.0 3.63 0.0 0.0 1.0
! *[dat]
HCNN 2 150.0 2.5 0.0 0.0 1.0
! JAM[dat]
HCNO 2 232.4 3.828 0.0 0.0 1.0
! JAM[dat]
HOCN 2 232.4 3.828 0.0 0.0 1.0
! OIS[dat]
HNCO 2 232.4 3.828 0.0 0.0 1.0
! OIS[dat]
NCO 1 232.4 3.828 0.0 0.0 1.0
C3H7 2 266.8 4.982 0.0 0.0 1.0
C3H8 2 266.8 4.982 0.0 0.0 1.0
CH2CHO 2 436.0 3.97 0.0 0.0 2.0
CH3CHO 2 436.0 3.97 0.0 0.0 2.0
END

REACTIONS MOLES CAL/MOLE
!Replaced by reaction from donor mechanism
!
! *****************************************************************************
!    H2/O2 subset                                                            *
! *****************************************************************************
!
!H+O2=O+OH    1.0E14 0.0 1.5286E4
O+H2=OH+H    3.8E12 0.0 7.948E3
    DUP
O+H2=OH+H    8.8E14 0.0 1.9175E4
    DUP
!Replaced by reaction from donor mechanism
!OH+H2=H+H2O    2.2E8 1.51 3.43E3
!Replaced by reaction from donor mechanism
!2OH=O+H2O    1.4E7 1.689 -1.167E3
!    DUP
!Replaced by reaction from donor mechanism
!2OH=O+H2O    -2.7E10 0.567 0.0E0
!    DUP
H2+M=2H+M    4.6E19 -1.4 1.0438E5
    H2/2.5/
    H2O/12.0/
    AR/0.0/
    DUP
H2+AR=2H+AR    5.8E18 -1.1 1.0438E5
H+O+M=OH+M    4.7E18 -1.0 0.0E0
    H2/2.5/
    H2O/12.0/
    AR/0.75/
    DUP
!Replaced by reaction from donor mechanism
!2O+M=O2+M    1.9E13 0.0 -1.788E3
!    H2/2.5/H2O/12.0/AR/0.0/
H2O+M=H+OH+M    6.1E27 -3.322 1.2079E5
    H2/3.0/
    H2O/0.0/
    N2/2.0/
    O2/1.5/
    DUP
2H2O=H+OH+H2O    1.006E26 -2.44 1.2018E5
H+O2(+M)=HO2(+M)    4.7E12 0.44 0.0E0
    H2/2.0/
    H2O/14.0/
    O2/0.78/
    AR/0.67/
    LOW/6.366E20 -1.72E0 5.248E2/
    TROE/5.0E-1 1.0E-30 1.0E30/
    DUP
!Replaced by reaction from donor mechanism
!HO2+H=H2+O2    2.8E6 2.09 -1.451E3
!Replaced by reaction from donor mechanism
!HO2+H=2OH    7.1E13 0.0 2.95E2
!Replaced by reaction from donor mechanism
!HO2+H=H2O+O    1.4E12 0.0 0.0E0
!Replaced by reaction from donor mechanism
!HO2+O=O2+OH    2.9E10 1.0 -7.24E2
HO2+OH=H2O+O2    1.93E20 -2.49 5.84E2
    DUP
HO2+OH=H2O+O2    1.21E9 1.24 -1.31E3
    DUP
2HO2=H2O2+O2    1.2E9 0.7712 -1.825E3
    DUP
2HO2=H2O2+O2    1.3E12 0.295 7.397E3
    DUP
H2O2(+M)=2OH(+M)    2.0E12 0.9 4.8749E4
    AR/1.0/
    H2O/7.5/
    N2/1.5/
    O2/1.2/
    H2O2/7.7/
    H2/3.7/
    LOW/2.49E24 -2.3E0 4.8749E4/
    TROE/4.3E-1 1.0E-30 1.0E30/
    DUP
!Replaced by reaction from donor mechanism
!H2O2+H=H2O+OH    2.4E13 0.0 3.97E3
!Replaced by reaction from donor mechanism
!H2O2+H=HO2+H2    4.8E13 0.0 7.95E3
!Replaced by reaction from donor mechanism
! Tsang and Hampson, J. Phys. Chem. Ref. Data, 15:1087 (1986)
!
!H2O2+O=HO2+OH    9.6E6 2.0 3.97E3
H2O2+OH=HO2+H2O    1.7E12 0.0 3.18E2
    DUP
H2O2+OH=HO2+H2O    7.6E13 0.0 7.27E3
    DUP
! ************************************************************************
!   NH3 subset                                                           *
! ************************************************************************
NH3+M=NH2+H+M    2.2E16 0.0 9.347E4
!Replaced by reaction from donor mechanism
!NH3+H=NH2+H2    6.4E5 2.39 1.0171E4
NH3+O=NH2+OH    9.4E6 1.94 6.46E3
!Replaced by reaction from donor mechanism
!NH3+OH=NH2+H2O    2.0E6 2.04 5.66E2
NH3+HO2=NH2+H2O2    3.0E11 0.0 2.2E4
!Replaced by reaction from donor mechanism
NH2+O=HNO+H    6.6E13 0.0 0.0E0
NH2+O=NH+OH    7.0E12 0.0 0.0E0
    DUP
NH2+O=NH+OH    8.6E-1 4.01 1.673E3
    DUP
NH2+OH=NH+H2O    3.3E6 1.949 -2.17E2
NH2+HO2=NH3+O2    1.7E4 1.55 2.027E3
NH2+HO2=H2NO+OH    5.0E13 0.0 0.0E0
NH2+HO2=HNO+H2O    1.6E7 0.55 5.25E2
    DUP
NH2+HO2=HNO+H2O    5.7E15 -1.12 7.07E2
    DUP
NH2+HO2=HON+H2O    2.1E7 0.64 8.11E2
NH2+O2=H2NO+O    2.6E11 0.4872 2.905E4
NH2+O2=HNO+OH    2.9E-2 3.764 1.8185E4
2NH2=NH3+NH    5.6E0 3.53 5.52E2
NH2+NH=NH3+N    9.6E3 2.46 1.07E2
NH2+N=N2+2H    7.0E13 0.0 0.0E0
NH2+HNO=NH3+NO    3.6E6 1.63 -1.25E3
NH2+NO=N2+H2O    1.3E16 -1.25 0.0E0
    DUP
NH2+NO=N2+H2O    -3.1E13 -0.48 1.18E3
    DUP
NH2+NO=NNH+OH    4.29E10 0.29 -8.7E2
NH2+HONO=NH3+NO2    7.1E1 3.02 -4.94E3
NH2+NO2=N2O+H2O    2.6E18 -2.191 4.55E2
NH2+NO2=H2NO+NO    9.1E11 0.0321 -1.512E3
NH+H=N+H2    1.0E14 0.0 0.0E0
NH+O=NO+H    9.2E13 0.0 0.0E0
NH+OH=HNO+H    3.2E14 -0.376 -4.6E1
NH+OH=N+H2O    1.6E7 1.733 -5.76E2
NH+O2=HNO+O    4.6E5 2.0 6.5E3
NH+O2=NO+OH    1.3E6 1.5 1.0E2
2NH=NH2+N    5.7E-1 3.88 3.42E2
NH+N=N2+H    3.0E13 0.0 0.0E0
NH+NO=N2O+H    5.0E14 -0.4 0.0E0
NH+NO=N2+OH    2.7E12 -0.0721 -5.12E2
NH+HONO=NH2+NO2    1.0E13 0.0 0.0E0
NH+NO2=N2O+OH    4.1E12 0.0 0.0E0
NH+NO2=HNO+NO    5.9E12 0.0 0.0E0
N+OH=NO+H    3.8E13 0.0 0.0E0
N+O2=NO+O    6.4E9 1.0 6.28E3
N+NO=N2+O    9.4E12 0.14 0.0E0
NNH=N2+H    1.0E9 0.0 0.0E0
NNH+H=N2+H2    1.0E14 0.0 0.0E0
NNH+O=N2O+H    1.9E14 -0.274 -2.2E1
NNH+O=N2+OH    1.2E13 0.145 -2.17E2
NNH+O=NH+NO    5.2E11 0.381 -4.09E2
NNH+OH=N2+H2O    5.0E13 0.0 0.0E0
NNH+O2=N2+HO2    5.6E14 -0.385 -1.3E1
NNH+NH=N2+NH2    5.0E13 0.0 0.0E0
NNH+NH2=N2+NH3    5.0E13 0.0 0.0E0
NNH+NO=N2+HNO    5.0E13 0.0 0.0E0
NH2OH(+M)=NH2+OH(+M)    1.4E20 -1.31 6.408E4
    LOW/5.4E37 -5.96E0 6.6783E4/
    TROE/3.1E-1 1.0E-30 1.0E30 1.0E30/
NH2OH+H=HNOH+H2    4.8E8 1.5 6.249E3
NH2OH+H=H2NO+H2    2.4E8 1.5 5.067E3
NH2OH+O=HNOH+OH    3.3E8 1.5 3.865E3
NH2OH+O=H2NO+OH    1.7E8 1.5 3.01E3
NH2OH+OH=HNOH+H2O    1.5E4 2.61 -3.537E3
NH2OH+OH=H2NO+H2O    1.5E5 2.28 -1.296E3
NH2OH+NH2=HNOH+NH3    1.1E-1 4.0 -9.7E1
NH2OH+NH2=H2NO+NH3    9.5E0 3.42 -1.013E3
NH2OH+NH=HNOH+NH2    2.9E-3 4.4 1.564E3
NH2OH+NH=H2NO+NH2    1.5E-3 4.6 2.424E3
NH2OH+HO2=HNOH+H2O2    2.9E4 2.69 9.557E3
NH2OH+HO2=H2NO+H2O2    1.4E4 2.69 6.418E3
H2NO+M=HNO+H+M    2.8E24 -2.83 6.4915E4
    H2O/10.0/
H2NO+M=HNOH+M    1.1E29 -4.0 4.4E4
    H2O/10.0/
H2NO+M=H2+NO+M    3.83E27 -4.29 6.03E4
H2NO+H=HNO+H2    3.0E7 2.0 2.0E3