"""
Master Mechanism:
! UT-LCS Ver.1.0   2017.11.22
!

Donor Mechanism:
 GRI-Mech Version 3.0 7/30/99  CHEMKIN-II format
 See README30 file at anonymous FTP site unix.sri.com, directory gri;
 WorldWideWeb home page http://www.me.berkeley.edu/gri_mech/ or
 through http://www.gri.org , under 'Basic  Research',
 for additional information, contacts, and disclaimer
THERMO
 Insert GRI-Mech thermodynamics here or use in default file
END
"""

units(length='cm', time='s', quantity='mol', act_energy='cal/mol')

ideal_gas(name='gas',
          elements="O H N He Ar C",
          species="""NO      NH3     H2      O2      H       O       OH
                     HO2     H2O     H2O2    NH2     NH      N       NNH
                     NH2OH   H2NO    HNOH    HNO     HON     NO2     HONO
                     HNO2    NO3     HONO2   N2O     N2H4    N2H3    N2H2
                     H2NN    AR      HE      N2      C       CH      CH2
                     CH2(S)  CH3     CH4     CO      CO2     HCO     CH2O
                     CH2OH   CH3O    CH3OH   C2H     C2H2    C2H3    C2H4
                     C2H5    C2H6    HCCO    CH2CO   HCCOH   CN      HCN
                     H2CN    HCNN    HCNO    HOCN    HNCO    NCO     C3H7
                     C3H8    CH2CHO  CH3CHO""",
          reactions='all',
          transport='Mix',
          initial_state=state(temperature=300.0, pressure=OneAtm))

#-------------------------------------------------------------------------------
# Species data
#-------------------------------------------------------------------------------

species(name='NO',
        atoms='N:1 O:1',
        thermo=(NASA([200.00, 1000.00],
                     [ 4.21859896E+00, -4.63988124E-03,  1.10443049E-05,
                      -9.34055507E-09,  2.80554874E-12,  9.84509964E+03,
                       2.28061001E+00]),
                NASA([1000.00, 6000.00],
                     [ 3.26071234E+00,  1.19101135E-03, -4.29122646E-07,
                       6.94481463E-11, -4.03295681E-15,  9.92143132E+03,
                       6.36900518E+00])),
        transport=gas_transport(geom='linear',
                                diam=3.621,
                                well_depth=97.53,
                                polar=1.76,
                                rot_relax=4.0),
        note='RUS-89')

species(name='NH3',
        atoms='H:3 N:1',
        thermo=(NASA([200.00, 1000.00],
                     [ 4.46075151E+00, -5.68781763E-03,  2.11411484E-05,
                      -2.02849980E-08,  6.89500555E-12, -6.70753514E+03,
                      -1.34450793E+00]),
                NASA([1000.00, 6000.00],
                     [ 2.09566674E+00,  6.14750045E-03, -2.00328925E-06,
                       3.01334626E-10, -1.71227204E-14, -6.30945436E+03,
                       9.59574081E+00])),
        transport=gas_transport(geom='nonlinear',
                                diam=2.92,
                                well_depth=481.0,
                                dipole=1.47,
                                rot_relax=10.0),
        note='A12-04')

species(name='H2',
        atoms='H:2',
        thermo=(NASA([200.00, 1000.00],
                     [ 2.34433112E+00,  7.98052075E-03, -1.94781510E-05,
                       2.01572094E-08, -7.37611761E-12, -9.17935173E+02,
                       6.83010238E-01]),
                NASA([1000.00, 6000.00],
                     [ 2.93286575E+00,  8.26608026E-04, -1.46402364E-07,
                       1.54100414E-11, -6.88804800E-16, -8.13065581E+02,
                      -1.02432865E+00])),
        transport=gas_transport(geom='linear',
                                diam=2.92,
                                well_depth=38.0,
                                polar=0.79,
                                rot_relax=280.0),
        note='tpis78')

species(name='O2',
        atoms='O:2',
        thermo=(NASA([200.00, 1000.00],
                     [ 3.78245636E+00, -2.99673416E-03,  9.84730201E-06,
                      -9.68129509E-09,  3.24372837E-12, -1.06394356E+03,
                       3.65767573E+00]),
                NASA([1000.00, 6000.00],
                     [ 3.66096065E+00,  6.56365811E-04, -1.41149627E-07,
                       2.05797935E-11, -1.29913436E-15, -1.21597718E+03,
                       3.41536279E+00])),
        transport=gas_transport(geom='linear',
                                diam=3.458,
                                well_depth=107.4,
                                polar=1.6,
                                rot_relax=3.8),
        note='RUS-89')

species(name='H',
        atoms='H:1',
        thermo=(NASA([200.00, 1000.00],
                     [ 2.50000000E+00,  0.00000000E+00,  0.00000000E+00,
                       0.00000000E+00,  0.00000000E+00,  2.54736600E+04,
                      -4.46682850E-01]),
                NASA([1000.00, 6000.00],
                     [ 2.50000000E+00,  0.00000000E+00,  0.00000000E+00,
                       0.00000000E+00,  0.00000000E+00,  2.54736600E+04,
                      -4.46682850E-01])),
        transport=gas_transport(geom='atom',
                                diam=2.05,
                                well_depth=145.0),
        note='L-6-94')

species(name='O',
        atoms='O:1',
        thermo=(NASA([200.00, 1000.00],
                     [ 3.16826710E+00, -3.27931884E-03,  6.64306396E-06,
                      -6.12806624E-09,  2.11265971E-12,  2.91222592E+04,
                       2.05193346E+00]),
                NASA([1000.00, 6000.00],
                     [ 2.54363697E+00, -2.73162486E-05, -4.19029520E-09,
                       4.95481845E-12, -4.79553694E-16,  2.92260120E+04,
                       4.92229457E+00])),
        transport=gas_transport(geom='atom',
                                diam=2.75,
                                well_depth=80.0),
        note='L-1-90')

species(name='OH',
        atoms='H:1 O:1',
        thermo=(NASA([200.00, 1000.00],
                     [ 3.99198424E+00, -2.40106655E-03,  4.61664033E-06,
                      -3.87916306E-09,  1.36319502E-12,  3.36889836E+03,
                      -1.03998477E-01]),
                NASA([1000.00, 6000.00],
                     [ 2.83853033E+00,  1.10741289E-03, -2.94000209E-07,
                       4.20698729E-11, -2.42289890E-15,  3.69780808E+03,
                       5.84494652E+00])),
        transport=gas_transport(geom='linear',
                                diam=2.75,
                                well_depth=80.0),
        note='IU3-03')

species(name='HO2',
        atoms='H:1 O:2',
        thermo=(NASA([200.00, 1000.00],
                     [ 4.30179807E+00, -4.74912097E-03,  2.11582905E-05,
                      -2.42763914E-08,  9.29225225E-12,  2.64018485E+02,
                       3.71666220E+00]),
                NASA([1000.00, 5000.00],
                     [ 4.17228741E+00,  1.88117627E-03, -3.46277286E-07,
                       1.94657549E-11,  1.76256905E-16,  3.10206839E+01,
                       2.95767672E+00])),
        transport=gas_transport(geom='nonlinear',
                                diam=3.458,
                                well_depth=107.4,
                                rot_relax=1.0),
        note='T-1-09')

species(name='H2O',
        atoms='H:2 O:1',
        thermo=(NASA([200.00, 1000.00],
                     [ 4.19863520E+00, -2.03640170E-03,  6.52034160E-06,
                      -5.48792690E-09,  1.77196800E-12, -3.02937260E+04,
                      -8.49009010E-01]),
                NASA([1000.00, 6000.00],
                     [ 2.67703890E+00,  2.97318160E-03, -7.73768890E-07,
                       9.44335140E-11, -4.26899910E-15, -2.98858940E+04,
                       6.88255000E+00])),
        transport=gas_transport(geom='nonlinear',
                                diam=2.605,
                                well_depth=572.4,
                                dipole=1.844,
                                rot_relax=4.0),
        note='L-5-89')

species(name='H2O2',
        atoms='H:2 O:2',
        thermo=(NASA([200.00, 1000.00],
                     [ 4.31515149E+00, -8.47390622E-04,  1.76404323E-05,
                      -2.26762944E-08,  9.08950158E-12, -1.77067437E+04,
                       3.27373319E+00]),
                NASA([1000.00, 6000.00],
                     [ 4.57977305E+00,  4.05326003E-03, -1.29844730E-06,
                       1.98211400E-10, -1.13968792E-14, -1.80071775E+04,
                       6.64970694E-01])),
        transport=gas_transport(geom='nonlinear',
                                diam=3.458,
                                well_depth=107.4,
                                rot_relax=3.8),
        note='T-8-03')

species(name='NH2',
        atoms='H:2 N:1',
        thermo=(NASA([200.00, 1000.00],
                     [ 4.19198016E+00, -2.04602827E-03,  6.67756134E-06,
                      -5.24907235E-09,  1.55589948E-12,  2.14991387E+04,
                      -9.04785244E-02]),
                NASA([1000.00, 3000.00],
                     [ 2.59263049E+00,  3.47683597E-03, -1.08271624E-06,
                       1.49342558E-10, -5.75241187E-15,  2.18865421E+04,
                       7.90565351E+00])),
        transport=gas_transport(geom='nonlinear',
                                diam=2.65,
                                well_depth=80.0,
                                polar=2.26,
                                rot_relax=4.0),
        note='IU3-03')

species(name='NH',
        atoms='H:1 N:1',
        thermo=(NASA([200.00, 1000.00],
                     [ 3.49295037E+00,  3.11795720E-04, -1.48906628E-06,
                       2.48167402E-09, -1.03570916E-12,  4.21059722E+04,
                       1.84834973E+00]),
                NASA([1000.00, 6000.00],
                     [ 2.78372644E+00,  1.32985888E-03, -4.24785573E-07,
                       7.83494442E-11, -5.50451310E-15,  4.23461945E+04,
                       5.74084863E+00])),
        transport=gas_transport(geom='linear',
                                diam=2.65,
                                well_depth=80.0,
                                rot_relax=4.0),
        note='ATcT-A')

species(name='N',
        atoms='N:1',
        thermo=(NASA([200.00, 1000.00],
                     [ 2.50000000E+00,  0.00000000E+00,  0.00000000E+00,
                       0.00000000E+00,  0.00000000E+00,  5.61046380E+04,
                       4.19390880E+00]),
                NASA([1000.00, 6000.00],
                     [ 2.41594290E+00,  1.74890650E-04, -1.19023690E-07,
                       3.02262440E-11, -2.03609830E-15,  5.61337750E+04,
                       4.64960950E+00])),
        transport=gas_transport(geom='atom',
                                diam=3.298,
                                well_depth=71.4),
        note='L-6-88')

species(name='NNH',
        atoms='H:1 N:2',
        thermo=(NASA([200.00, 1000.00],
                     [ 4.25474632E+00, -3.45098298E-03,  1.37788699E-05,
                      -1.33263744E-08,  4.41023397E-12,  2.88323793E+04,
                       3.28551762E+00]),
                NASA([1000.00, 6000.00],
                     [ 3.42744423E+00,  3.23295234E-03, -1.17296299E-06,
                       1.90508356E-10, -1.14491506E-14,  2.88067740E+04,
                       6.39209233E+00])),
        transport=gas_transport(geom='nonlinear',
                                diam=3.798,
                                well_depth=71.4,
                                rot_relax=1.0),
        note='T-1-06')

species(name='NH2OH',
        atoms='H:3 N:1 O:1',
        thermo=(NASA([200.00, 1000.00],
                     [ 3.21016092E+00,  6.19671676E-03,  1.10594948E-05,
                      -1.96668262E-08,  8.82516590E-12, -6.58148481E+03,
                       7.93293571E+00]),
                NASA([1000.00, 6000.00],
                     [ 3.88112502E+00,  8.15708448E-03, -2.82615576E-06,
                       4.37930933E-10, -2.52724604E-14, -6.86018419E+03,
                       3.79156136E+00])),
        transport=gas_transport(geom='nonlinear',
                                diam=3.492,
                                well_depth=116.7,
                                rot_relax=1.0),
        note='ATcT-A')

species(name='H2NO',
        atoms='H:2 N:1 O:1',
        thermo=(NASA([298.00, 1000.00],
                     [ 4.07694692E+00,  2.19179940E-04,  9.92160372E-06,
                      -1.02259681E-08,  3.26220462E-12,  6.48547616E+03,
                       3.93185152E+00]),
                NASA([1000.00, 3000.00],
                     [ 3.33719385E+00,  5.72250531E-03, -2.14985397E-06,
                       3.65983461E-10, -2.18615301E-14,  6.50621112E+03,
                       6.86465421E+00])),
        transport=gas_transport(geom='nonlinear',
                                diam=3.492,
                                well_depth=116.7,
                                rot_relax=1.0),
        note='1510')

species(name='HNOH',
        atoms='H:2 N:1 O:1',
        thermo=(NASA([200.00, 1000.00],
                     [ 3.95608248E+00, -3.02611020E-03,  2.56874396E-05,
                      -3.15645120E-08,  1.24084574E-11,  1.09199790E+04,
                       5.55950983E+00]),
                NASA([1000.00, 6000.00],
                     [ 3.98321933E+00,  4.88846374E-03, -1.65086637E-06,
                       2.55371446E-10, -1.48308561E-14,  1.05780106E+04,
                       3.62582838E+00])),
        transport=gas_transport(geom='nonlinear',
                                diam=3.492,
                                well_depth=116.7,
                                rot_relax=1.0),
        note='T11-11')

species(name='HNO',
        atoms='H:1 N:1 O:1',
        thermo=(NASA([200.00, 1000.00],
                     [ 4.53525574E+00, -5.68543377E-03,  1.85198540E-05,
                      -1.71881225E-08,  5.55818157E-12,  1.16183003E+04,
                       1.74315886E+00]),
                NASA([1000.00, 6000.00],
                     [ 3.16598124E+00,  2.99958892E-03, -3.94376786E-07,
                      -3.85344089E-11,  7.07602668E-15,  1.17726311E+04,
                       7.64511172E+00])),
        transport=gas_transport(geom='nonlinear',
                                diam=3.492,
                                well_depth=116.7,
                                rot_relax=1.0),
        note='ATcT-A')

species(name='HON',
        atoms='H:1 N:1 O:1',
        thermo=(NASA([200.00, 1000.00],
                     [ 4.30796097E+00, -5.01538487E-03,  2.27054537E-05,
                      -2.65676371E-08,  1.02998699E-11,  2.45850141E+04,
                       3.93009562E+00]),
                NASA([1000.00, 6000.00],
                     [ 4.00745749E+00,  2.41824666E-03, -8.13734001E-07,
                       1.25573064E-10, -7.28062602E-15,  2.43965586E+04,
                       4.01091333E+00])),
        transport=gas_transport(geom='nonlinear',
                                diam=3.492,
                                well_depth=116.7,
                                rot_relax=1.0),
        note='T11-11')

species(name='NO2',
        atoms='N:1 O:2',
        thermo=(NASA([200.00, 1000.00],
                     [ 3.94403120E+00, -1.58542900E-03,  1.66578120E-05,
                      -2.04754260E-08,  7.83505640E-12,  2.89661800E+03,
                       6.31199190E+00]),
                NASA([1000.00, 6000.00],
                     [ 4.88475400E+00,  2.17239550E-03, -8.28069090E-07,
                       1.57475100E-10, -1.05108950E-14,  2.31649820E+03,
                      -1.17416950E-01])),
        transport=gas_transport(geom='nonlinear',
                                diam=3.5,
                                well_depth=200.0,
                                rot_relax=1.0),
        note='L-7-88')

species(name='HONO',
        atoms='H:1 N:1 O:2',
        thermo=(NASA([200.00, 1000.00],
                     [ 3.21415915E+00,  8.12778066E-03,  1.65998916E-06,
                      -9.52814708E-09,  4.87131424E-12, -1.07830727E+04,
                       9.82200056E+00]),
                NASA([1000.00, 6000.00],
                     [ 5.79182717E+00,  3.65162554E-03, -1.29293390E-06,
                       2.06892796E-10, -1.23154749E-14, -1.15953895E+04,
                      -4.05538852E+00])),
        transport=gas_transport(geom='nonlinear',
                                diam=3.828,
                                well_depth=232.4,
                                rot_relax=1.0),
        note='T-9-11')

species(name='HNO2',
        atoms='H:1 N:1 O:2',
        thermo=(NASA([300.00, 1500.00],
                     [ 1.93483800E+00,  1.01003600E-02, -4.96461600E-06,
                       8.70112000E-10, -2.32413500E-15, -5.91571591E+03,
                       1.47282082E+01]),
                NASA([1500.00, 4000.00],
                     [ 6.47963000E+00,  1.99527400E-03, -1.74038700E-07,
                      -9.69587200E-11,  1.70148000E-14, -7.80950291E+03,
                      -1.06771518E+01])),
        transport=gas_transport(geom='nonlinear',
                                diam=4.29,
                                well_depth=252.0,
                                rot_relax=1.0),
        note='103190')

species(name='NO3',
        atoms='N:1 O:3',
        thermo=(NASA([200.00, 1000.00],
                     [ 2.17359330E+00,  1.04902685E-02,  1.10472669E-05,
                      -2.81561867E-08,  1.36583960E-11,  7.81290905E+03,
                       1.46022090E+01]),
                NASA([1000.00, 6000.00],
                     [ 7.48347702E+00,  2.57772064E-03, -1.00945831E-06,
                       1.72314063E-10, -1.07154008E-14,  6.12990474E+03,
                      -1.41618136E+01])),
        transport=gas_transport(geom='nonlinear',
                                diam=4.175,
                                well_depth=378.4,
                                rot_relax=1.0),
        note='ATcT-A')

species(name='HONO2',
        atoms='H:1 N:1 O:3',
        thermo=(NASA([200.00, 1000.00],
                     [ 1.69329154E+00,  1.90167702E-02, -8.25176697E-06,
                      -6.06113827E-09,  4.65236978E-12, -1.73882411E+04,
                       1.71839655E+01]),
                NASA([1000.00, 6000.00],
                     [ 8.03098942E+00,  4.46958589E-03, -1.72459491E-06,
                       2.91556153E-10, -1.80102702E-14, -1.92821685E+04,
                      -1.62616720E+01])),
        transport=gas_transport(geom='nonlinear',
                                diam=4.175,
                                well_depth=378.4,
                                rot_relax=1.0),
        note='T-8-03')

species(name='N2O',
        atoms='N:2 O:1',
        thermo=(NASA([200.00, 1000.00],
                     [ 2.25715020E+00,  1.13047280E-02, -1.36713190E-05,
                       9.68198030E-09, -2.93071820E-12,  8.74177460E+03,
                       1.07579920E+01]),
                NASA([1000.00, 6000.00],
                     [ 4.82307290E+00,  2.62702510E-03, -9.58508720E-07,
                       1.60007120E-10, -9.77523020E-15,  8.07340470E+03,
                      -2.20172080E+00])),
        transport=gas_transport(geom='linear',
                                diam=3.828,
                                well_depth=232.4,
                                rot_relax=1.0),
        note='L-7-88')

species(name='N2H4',
        atoms='H:4 N:2',
        thermo=(NASA([300.00, 1000.00],
                     [ 6.44260600E-02,  2.74973000E-02, -2.89945100E-05,
                       1.74524000E-08, -4.42228200E-12,  1.04519200E+04,
                       2.12778900E+01]),
                NASA([1000.00, 5000.00],
                     [ 4.97731700E+00,  9.59551900E-03, -3.54763900E-06,
                       6.12429900E-10, -4.02979500E-14,  9.34121900E+03,
                      -2.96299000E+00])),
        transport=gas_transport(geom='nonlinear',
                                diam=4.23,
                                well_depth=205.0,
                                polar=4.26,
                                rot_relax=1.5),
        note='121286')

species(name='N2H3',
        atoms='H:3 N:2',
        thermo=(NASA([300.00, 1000.00],
                     [ 3.17420400E+00,  4.71590700E-03,  1.33486700E-05,
                      -1.91968500E-08,  7.48756400E-12,  1.72727000E+04,
                       7.55722400E+00]),
                NASA([1000.00, 5000.00],
                     [ 4.44184600E+00,  7.21427100E-03, -2.49568400E-06,
                       3.92056500E-10, -2.29895000E-14,  1.66422100E+04,
                      -4.27520500E-01])),
        transport=gas_transport(geom='nonlinear',
                                diam=3.9,
                                well_depth=200.0,
                                rot_relax=1.0),
        note='120186')

species(name='N2H2',
        atoms='H:2 N:2',
        thermo=(NASA([300.00, 1000.00],
                     [ 1.61799900E+00,  1.30631200E-02, -1.71571200E-05,
                       1.60560800E-08, -6.09363900E-12,  2.46752600E+04,
                       1.37946700E+01]),
                NASA([1000.00, 5000.00],
                     [ 3.37118500E+00,  6.03996800E-03, -2.30385400E-06,
                       4.06278900E-10, -2.71314400E-14,  2.41817200E+04,
                       4.98058500E+00])),
        transport=gas_transport(geom='nonlinear',
                                diam=3.798,
                                well_depth=71.4,
                                rot_relax=1.0),
        note='121286')

species(name='H2NN',
        atoms='H:2 N:2',
        thermo=(NASA([300.00, 1695.00],
                     [ 2.88544262E+00,  4.69495999E-03,  7.01983230E-07,
                      -1.53359038E-09,  3.79345858E-13,  3.36030690E+04,
                       8.95096779E+00]),
                NASA([1695.00, 5000.00],
                     [ 3.13531032E+00,  5.68632569E-03, -1.93983467E-06,
                       3.01290501E-10, -1.74978144E-14,  3.33678346E+04,
                       7.04815840E+00])),
        transport=gas_transport(geom='nonlinear',
                                diam=3.798,
                                well_depth=71.4,
                                rot_relax=1.0),
        note='M3-96')

species(name='AR',
        atoms='Ar:1',
        thermo=(NASA([200.00, 1000.00],
                     [ 2.50000000E+00,  0.00000000E+00,  0.00000000E+00,
                       0.00000000E+00,  0.00000000E+00, -7.45375000E+02,
                       4.37967491E+00]),
                NASA([1000.00, 6000.00],
                     [ 2.50000000E+00,  0.00000000E+00,  0.00000000E+00,
                       0.00000000E+00,  0.00000000E+00, -7.45375000E+02,
                       4.37967491E+00])),
        transport=gas_transport(geom='atom',
                                diam=3.33,
                                well_depth=136.5),
        note='g-5-97')

species(name='HE',
        atoms='He:1',
        thermo=(NASA([200.00, 1000.00],
                     [ 2.50000000E+00,  0.00000000E+00,  0.00000000E+00,
                       0.00000000E+00,  0.00000000E+00, -7.45375000E+02,
                       9.28723974E-01]),
                NASA([1000.00, 6000.00],
                     [ 2.50000000E+00,  0.00000000E+00,  0.00000000E+00,
                       0.00000000E+00,  0.00000000E+00, -7.45375000E+02,
                       9.28723974E-01])),
        transport=gas_transport(geom='atom',
                                diam=2.576,
                                well_depth=10.2),
        note='g-5-97')

species(name='N2',
        atoms='N:2',
        thermo=(NASA([200.00, 1000.00],
                     [ 3.53100528E+00, -1.23660988E-04, -5.02999433E-07,
                       2.43530612E-09, -1.40881235E-12, -1.04697628E+03,
                       2.96747038E+00]),
                NASA([1000.00, 6000.00],
                     [ 2.95257637E+00,  1.39690040E-03, -4.92631603E-07,
                       7.86010195E-11, -4.60755204E-15, -9.23948688E+02,
                       5.87188762E+00])),
        transport=gas_transport(geom='linear',
                                diam=3.621,
                                well_depth=97.53,
                                polar=1.76,
                                rot_relax=4.0),
        note='G-8-02')

species(name='C',
        atoms='C:1',
        thermo=(NASA([200.00, 1000.00],
                     [ 2.55423955E+00, -3.21537724E-04,  7.33792245E-07,
                      -7.32234889E-10,  2.66521446E-13,  8.54438832E+04,
                       4.53130848E+00]),
                NASA([1000.00, 3500.00],
                     [ 2.49266888E+00,  4.79889284E-05, -7.24335020E-08,
                       3.74291029E-11, -4.87277893E-15,  8.54512953E+04,
                       4.80150373E+00])),
        transport=gas_transport(geom='atom',
                                diam=3.298,
                                well_depth=71.4),
        note='L11-88')

species(name='CH',
        atoms='C:1 H:1',
        thermo=(NASA([200.00, 1000.00],
                     [ 3.48981665E+00,  3.23835541E-04, -1.68899065E-06,
                       3.16217327E-09, -1.40609067E-12,  7.07972934E+04,
                       2.08401108E+00]),
                NASA([1000.00, 3500.00],
                     [ 2.87846473E+00,  9.70913681E-04,  1.44445655E-07,
                      -1.30687849E-10,  1.76079383E-14,  7.10124364E+04,
                       5.48497999E+00])),
        transport=gas_transport(geom='linear',
                                diam=2.75,
                                well_depth=80.0),
        note='TPIS79')

species(name='CH2',
        atoms='C:1 H:2',
        thermo=(NASA([200.00, 1000.00],
                     [ 3.76267867E+00,  9.68872143E-04,  2.79489841E-06,
                      -3.85091153E-09,  1.68741719E-12,  4.60040401E+04,
                       1.56253185E+00]),
                NASA([1000.00, 3500.00],
                     [ 2.87410113E+00,  3.65639292E-03, -1.40894597E-06,
                       2.60179549E-10, -1.87727567E-14,  4.62636040E+04,
                       6.17119324E+00])),
        transport=gas_transport(geom='linear',
                                diam=3.8,
                                well_depth=144.0),
        note='L-S-93')

species(name='CH2(S)',
        atoms='C:1 H:2',
        thermo=(NASA([200.00, 1000.00],
                     [ 4.19860411E+00, -2.36661419E-03,  8.23296220E-06,
                      -6.68815981E-09,  1.94314737E-12,  5.04968163E+04,
                      -7.69118967E-01]),
                NASA([1000.00, 3500.00],
                     [ 2.29203842E+00,  4.65588637E-03, -2.01191947E-06,
                       4.17906000E-10, -3.39716365E-14,  5.09259997E+04,
                       8.62650169E+00])),
        transport=gas_transport(geom='linear',
                                diam=3.8,
                                well_depth=144.0),
        note='L-S-93')

species(name='CH3',
        atoms='C:1 H:3',
        thermo=(NASA([200.00, 1000.00],
                     [ 3.67359040E+00,  2.01095175E-03,  5.73021856E-06,
                      -6.87117425E-09,  2.54385734E-12,  1.64449988E+04,
                       1.60456433E+00]),
                NASA([1000.00, 3500.00],
                     [ 2.28571772E+00,  7.23990037E-03, -2.98714348E-06,
                       5.95684644E-10, -4.67154394E-14,  1.67755843E+04,
                       8.48007179E+00])),
        transport=gas_transport(geom='linear',
                                diam=3.8,
                                well_depth=144.0),
        note='L11-89')

species(name='CH4',
        atoms='C:1 H:4',
        thermo=(NASA([200.00, 1000.00],
                     [ 5.14987613E+00, -1.36709788E-02,  4.91800599E-05,
                      -4.84743026E-08,  1.66693956E-11, -1.02466476E+04,
                      -4.64130376E+00]),
                NASA([1000.00, 3500.00],
                     [ 7.48514950E-02,  1.33909467E-02, -5.73285809E-06,
                       1.22292535E-09, -1.01815230E-13, -9.46834459E+03,
                       1.84373180E+01])),
        transport=gas_transport(geom='nonlinear',
                                diam=3.746,
                                well_depth=141.4,
                                polar=2.6,
                                rot_relax=13.0),
        note='L-8-88')

species(name='CO',
        atoms='C:1 O:1',
        thermo=(NASA([200.00, 1000.00],
                     [ 3.57953347E+00, -6.10353680E-04,  1.01681433E-06,
                       9.07005884E-10, -9.04424499E-13, -1.43440860E+04,
                       3.50840928E+00]),
                NASA([1000.00, 3500.00],
                     [ 2.71518561E+00,  2.06252743E-03, -9.98825771E-07,
                       2.30053008E-10, -2.03647716E-14, -1.41518724E+04,
                       7.81868772E+00])),
        transport=gas_transport(geom='linear',
                                diam=3.65,
                                well_depth=98.1,
                                polar=1.95,
                                rot_relax=1.8),
        note='TPIS79')

species(name='CO2',
        atoms='C:1 O:2',
        thermo=(NASA([200.00, 1000.00],
                     [ 2.35677352E+00,  8.98459677E-03, -7.12356269E-06,
                       2.45919022E-09, -1.43699548E-13, -4.83719697E+04,
                       9.90105222E+00]),
                NASA([1000.00, 3500.00],
                     [ 3.85746029E+00,  4.41437026E-03, -2.21481404E-06,
                       5.23490188E-10, -4.72084164E-14, -4.87591660E+04,
                       2.27163806E+00])),
        transport=gas_transport(geom='linear',
                                diam=3.763,
                                well_depth=244.0,