!Master Mechanism:
! GRI-Mech Version 3.0 7/30/99  CHEMKIN-II format
! See README30 file at anonymous FTP site unix.sri.com, directory gri;
! WorldWideWeb home page http://www.me.berkeley.edu/gri_mech/ or
! through http://www.gri.org , under 'Basic  Research',
! for additional information, contacts, and disclaimer
!THERMO
! Insert GRI-Mech thermodynamics here or use in default file
!END
!Donor Mechanism:
!! UT-LCS Ver.1.0   2017.11.22
!!
!
ELEMENTS
O H C N AR 
HE 
END
SPECIES
H2 H O O2 OH 
H2O HO2 H2O2 CH2 CH2(S) 
CH3 CH4 CO CO2 HCO 
CH2O CH3O C2H6 N2 NO 
NH3 NH2 NH NNH H2NO 
HNO NO2 HONO N2O AR 
END

REACTIONS MOLES CAL/MOLE
2O+M=O2+M    1.2E17 -1.0 0.0E0
    H2/2.4/
    H2O/15.4/
    CH4/2.0/
    CO/1.75/
    CO2/3.6/
    C2H6/3.0/
O+H+M=OH+M    5.0E17 -1.0 0.0E0
    H2/2.0/
    H2O/6.0/
    CH4/2.0/
    CO/1.5/
    CO2/2.0/
    C2H6/3.0/
O+H2=H+OH    3.87E4 2.7 6.26E3
    DUP
O+HO2=OH+O2    2.0E13 0.0 0.0E0
O+H2O2=OH+HO2    9.63E6 2.0 4.0E3
O+CH2=H+HCO    8.0E13 0.0 0.0E0
O+CH2(S)=H2+CO    1.5E13 0.0 0.0E0
O+CH2(S)=H+HCO    1.5E13 0.0 0.0E0
O+CH3=H+CH2O    5.06E13 0.0 0.0E0
O+CH4=OH+CH3    1.02E9 1.5 8.6E3
O+CO(+M)=CO2(+M)    1.8E10 0.0 2.385E3
    H2/2.0/
    O2/6.0/
    H2O/6.0/
    CH4/2.0/
    CO/1.5/
    CO2/3.5/
    C2H6/3.0/
    LOW/6.02E14 0.0E0 3.0E3/
O+HCO=OH+CO    3.0E13 0.0 0.0E0
O+HCO=H+CO2    3.0E13 0.0 0.0E0
O+CH2O=OH+HCO    3.9E13 0.0 3.54E3
O+CH3O=OH+CH2O    1.0E13 0.0 0.0E0
O2+CO=O+CO2    2.5E12 0.0 4.78E4
O2+CH2O=HO2+HCO    1.0E14 0.0 4.0E4
H+O2+M=HO2+M    2.8E18 -0.86 0.0E0
    O2/0.0/
    H2O/0.0/
    CO/0.75/
    CO2/1.5/
    C2H6/1.5/
    N2/0.0/
H+2O2=HO2+O2    2.08E19 -1.24 0.0E0
H+O2+H2O=HO2+H2O    1.126E19 -0.76 0.0E0
H+O2+N2=HO2+N2    2.6E19 -1.24 0.0E0
H+O2=O+OH    2.65E16 -0.6707 1.7041E4
2H+M=H2+M    1.0E18 -1.0 0.0E0
    H2/0.0/
    H2O/0.0/
    CH4/2.0/
    CO2/0.0/
    C2H6/3.0/
2H+H2=2H2    9.0E16 -0.6 0.0E0
2H+H2O=H2+H2O    6.0E19 -1.25 0.0E0
2H+CO2=H2+CO2    5.5E20 -2.0 0.0E0
H+OH+M=H2O+M    2.2E22 -2.0 0.0E0
    H2/0.73/
    H2O/3.65/
    CH4/2.0/
    C2H6/3.0/
    DUP
H+HO2=O+H2O    3.97E12 0.0 6.71E2
H+HO2=O2+H2    4.48E13 0.0 1.068E3
H+HO2=2OH    8.4E13 0.0 6.35E2
H+H2O2=HO2+H2    1.21E7 2.0 5.2E3
H+H2O2=OH+H2O    1.0E13 0.0 3.6E3
H+CH2(+M)=CH3(+M)    6.0E14 0.0 0.0E0
    H2/2.0/
    H2O/6.0/
    CH4/2.0/
    CO/1.5/
    CO2/2.0/
    C2H6/3.0/
    LOW/1.04E26 -2.76E0 1.6E3/
    TROE/5.62E-1 9.1E1 5.836E3 8.552E3/
H+CH3(+M)=CH4(+M)    1.39E16 -0.534 5.36E2
    H2/2.0/
    H2O/6.0/
    CH4/3.0/
    CO/1.5/
    CO2/2.0/
    C2H6/3.0/
    LOW/2.62E33 -4.76E0 2.44E3/
    TROE/7.83E-1 7.4E1 2.941E3 6.964E3/
H+CH4=CH3+H2    6.6E8 1.62 1.084E4
H+HCO(+M)=CH2O(+M)    1.09E12 0.48 -2.6E2
    H2/2.0/
    H2O/6.0/
    CH4/2.0/
    CO/1.5/
    CO2/2.0/
    C2H6/3.0/
    LOW/2.47E24 -2.57E0 4.25E2/
    TROE/7.824E-1 2.71E2 2.755E3 6.57E3/
H+HCO=H2+CO    7.34E13 0.0 0.0E0
H+CH2O(+M)=CH3O(+M)    5.4E11 0.454 2.6E3
    H2/2.0/
    H2O/6.0/
    CH4/2.0/
    CO/1.5/
    CO2/2.0/
    C2H6/3.0/
    LOW/2.2E30 -4.8E0 5.56E3/
    TROE/7.58E-1 9.4E1 1.555E3 4.2E3/
H+CH2O=HCO+H2    5.74E7 1.9 2.742E3
H+CH3O=H2+CH2O    2.0E13 0.0 0.0E0
H+CH3O=OH+CH3    1.5E12 0.5 -1.1E2
H+CH3O=CH2(S)+H2O    2.62E14 -0.23 1.07E3
H2+CO(+M)=CH2O(+M)    4.3E7 1.5 7.96E4
    H2/2.0/
    H2O/6.0/
    CH4/2.0/
    CO/1.5/
    CO2/2.0/
    C2H6/3.0/
    LOW/5.07E27 -3.42E0 8.435E4/
    TROE/9.32E-1 1.97E2 1.54E3 1.03E4/
OH+H2=H+H2O    2.16E8 1.51 3.43E3
2OH(+M)=H2O2(+M)    7.4E13 -0.37 0.0E0
    H2/2.0/
    H2O/6.0/
    CH4/2.0/
    CO/1.5/
    CO2/2.0/
    C2H6/3.0/
    DUP
    LOW/2.3E18 -9.0E-1 -1.7E3/
    TROE/7.346E-1 9.4E1 1.756E3 5.182E3/
2OH=O+H2O    3.57E4 2.4 -2.11E3
OH+HO2=O2+H2O    1.45E13 0.0 -5.0E2
    DUP
OH+H2O2=HO2+H2O    2.0E12 0.0 4.27E2
    DUP
OH+H2O2=HO2+H2O    1.7E18 0.0 2.941E4
    DUP
OH+CH2=H+CH2O    2.0E13 0.0 0.0E0
OH+CH2(S)=H+CH2O    3.0E13 0.0 0.0E0
OH+CH3=CH2+H2O    5.6E7 1.6 5.42E3
OH+CH3=CH2(S)+H2O    6.44E17 -1.34 1.417E3
OH+CH4=CH3+H2O    1.0E8 1.6 3.12E3
OH+CO=H+CO2    4.76E7 1.228 7.0E1
OH+HCO=H2O+CO    5.0E13 0.0 0.0E0
OH+CH2O=HCO+H2O    3.43E9 1.18 -4.47E2
OH+CH3O=H2O+CH2O    5.0E12 0.0 0.0E0
2HO2=O2+H2O2    1.3E11 0.0 -1.63E3
    DUP
2HO2=O2+H2O2    4.2E14 0.0 1.2E4
    DUP
HO2+CH2=OH+CH2O    2.0E13 0.0 0.0E0
HO2+CH3=O2+CH4    1.0E12 0.0 0.0E0
HO2+CH3=OH+CH3O    3.78E13 0.0 0.0E0
HO2+CO=OH+CO2    1.5E14 0.0 2.36E4
HO2+CH2O=HCO+H2O2    5.6E6 2.0 1.2E4
CH2+O2=>OH+H+CO    5.0E12 0.0 1.5E3
CH2+H2=H+CH3    5.0E5 2.0 7.23E3
CH2+CH4=2CH3    2.46E6 2.0 8.27E3
CH2(S)+N2=CH2+N2    1.5E13 0.0 6.0E2
CH2(S)+O2=H+OH+CO    2.8E13 0.0 0.0E0
CH2(S)+O2=CO+H2O    1.2E13 0.0 0.0E0
CH2(S)+H2=CH3+H    7.0E13 0.0 0.0E0
CH2(S)+H2O=CH2+H2O    3.0E13 0.0 0.0E0
CH2(S)+CH4=2CH3    1.6E13 0.0 -5.7E2
CH2(S)+CO=CH2+CO    9.0E12 0.0 0.0E0
CH2(S)+CO2=CH2+CO2    7.0E12 0.0 0.0E0
CH2(S)+CO2=CO+CH2O    1.4E13 0.0 0.0E0
CH3+O2=O+CH3O    3.56E13 0.0 3.048E4
CH3+O2=OH+CH2O    2.31E12 0.0 2.0315E4
CH3+H2O2=HO2+CH4    2.45E4 2.47 5.18E3
2CH3(+M)=C2H6(+M)    6.77E16 -1.18 6.54E2
    H2/2.0/
    H2O/6.0/
    CH4/2.0/
    CO/1.5/
    CO2/2.0/
    C2H6/3.0/
    LOW/3.4E41 -7.03E0 2.762E3/
    TROE/6.19E-1 7.32E1 1.18E3 9.999E3/
CH3+HCO=CH4+CO    2.648E13 0.0 0.0E0
CH3+CH2O=HCO+CH4    3.32E3 2.81 5.86E3
HCO+H2O=H+CO+H2O    1.5E18 -1.0 1.7E4
HCO+M=H+CO+M    1.87E17 -1.0 1.7E4
    H2/2.0/
    H2O/0.0/
    CH4/2.0/
    CO/1.5/
    CO2/2.0/
    C2H6/3.0/
HCO+O2=HO2+CO    1.345E13 0.0 4.0E2
CH3O+O2=HO2+CH2O    4.28E-13 7.6 -3.53E3
O+CH3=>H+H2+CO    3.37E13 0.0 0.0E0
OH+HO2=O2+H2O    5.0E15 0.0 1.733E4
    DUP
OH+CH3=>H2+CH2O    8.0E9 0.5 -1.755E3
CH2+O2=>2H+CO2    5.8E12 0.0 1.5E3
CH2+O2=O+CH2O    2.4E12 0.0 1.5E3
CH2(S)+H2O=>H2+CH2O    6.82E10 0.25 -9.35E2
!Ignored from donor mechanism
!
! *****************************************************************************
!    H2/O2 subset                                                            *
! *****************************************************************************
!
!H+O2=O+OH    1.0E14 0.0 1.5286E4
!Added from donor mechanism
O+H2=OH+H    3.8E12 0.0 7.948E3
    DUP
!Added from donor mechanism
O+H2=OH+H    8.8E14 0.0 1.9175E4
    DUP
!Ignored from donor mechanism
!OH+H2=H+H2O    2.2E8 1.51 3.43E3
!Ignored from donor mechanism
!2OH=O+H2O    1.4E7 1.689 -1.167E3
!    DUP
!Ignored from donor mechanism
!2OH=O+H2O    -2.7E10 0.567 0.0E0
!    DUP
!Added from donor mechanism

!Ignored from donor mechanism
!H+O+M=OH+M    4.7E18 -1.0 0.0E0
!    H2/2.5/H2O/12.0/AR/0.75/
!Ignored from donor mechanism
!2O+M=O2+M    1.9E13 0.0 -1.788E3
!    H2/2.5/H2O/12.0/AR/0.0/
!Added from donor mechanism
H2O+M=H+OH+M    6.1E27 -3.322 1.2079E5
    O2/1.5/
    H2O/0.0/
    N2/2.0/
    H2/3.0/
    DUP
!Added from donor mechanism
2H2O=H+OH+H2O    1.006E26 -2.44 1.2018E5
!Ignored from donor mechanism
!H+O2(+M)=HO2(+M)    4.7E12 0.44 0.0E0
!    H2/2.0/H2O/14.0/O2/0.78/AR/0.67/
!    LOW/6.366E20 -1.72E0 5.248E2/
!    TROE/5.0E-1 1.0E-30 1.0E30/
!Ignored from donor mechanism
!HO2+H=H2+O2    2.8E6 2.09 -1.451E3
!Ignored from donor mechanism
!HO2+H=2OH    7.1E13 0.0 2.95E2
!Ignored from donor mechanism
!HO2+H=H2O+O    1.4E12 0.0 0.0E0
!Ignored from donor mechanism
!HO2+O=O2+OH    2.9E10 1.0 -7.24E2
!Added from donor mechanism
HO2+OH=H2O+O2    1.93E20 -2.49 5.84E2
    DUP
!Added from donor mechanism
HO2+OH=H2O+O2    1.21E9 1.24 -1.31E3
    DUP
!Ignored from donor mechanism
!2HO2=H2O2+O2    1.2E9 0.7712 -1.825E3
!    DUP
!Ignored from donor mechanism
!2HO2=H2O2+O2    1.3E12 0.295 7.397E3
!    DUP
!Added from donor mechanism
H2O2(+M)=2OH(+M)    2.0E12 0.9 4.8749E4
    O2/1.2/
    H2O/7.5/
    N2/1.5/
    H2/3.7/
    H2O2/7.7/
    DUP
    LOW/2.49E24 -2.3E0 4.8749E4/
    TROE/4.3E-1 1.0E-30 1.0E30/
!Ignored from donor mechanism
!H2O2+H=H2O+OH    2.4E13 0.0 3.97E3
!Ignored from donor mechanism
!H2O2+H=HO2+H2    4.8E13 0.0 7.95E3
!Ignored from donor mechanism
! Tsang and Hampson, J. Phys. Chem. Ref. Data, 15:1087 (1986)
!
!H2O2+O=HO2+OH    9.6E6 2.0 3.97E3
!Ignored from donor mechanism
!H2O2+OH=HO2+H2O    1.7E12 0.0 3.18E2
!    DUP
!Ignored from donor mechanism
!H2O2+OH=HO2+H2O    7.6E13 0.0 7.27E3
!    DUP
!Added from donor mechanism
! ************************************************************************
!   NH3 subset                                                           *
! ************************************************************************
NH3+M=NH2+H+M    2.2E16 0.0 9.347E4
!Added from donor mechanism
NH3+H=NH2+H2    6.4E5 2.39 1.0171E4
!Added from donor mechanism
NH3+O=NH2+OH    9.4E6 1.94 6.46E3
!Added from donor mechanism
NH3+OH=NH2+H2O    2.0E6 2.04 5.66E2
!Added from donor mechanism
NH3+HO2=NH2+H2O2    3.0E11 0.0 2.2E4
!Added from donor mechanism
NH2+H=NH+H2    1.0E6 2.32 7.99E2
!Added from donor mechanism
NH2+O=HNO+H    6.6E13 0.0 0.0E0
!Added from donor mechanism
NH2+O=NH+OH    7.0E12 0.0 0.0E0
    DUP
!Added from donor mechanism
NH2+O=NH+OH    8.6E-1 4.01 1.673E3
    DUP
!Added from donor mechanism
NH2+OH=NH+H2O    3.3E6 1.949 -2.17E2
!Added from donor mechanism
NH2+HO2=NH3+O2    1.7E4 1.55 2.027E3
!Added from donor mechanism
NH2+HO2=H2NO+OH    5.0E13 0.0 0.0E0
!Added from donor mechanism
NH2+HO2=HNO+H2O    1.6E7 0.55 5.25E2
    DUP
!Added from donor mechanism
NH2+HO2=HNO+H2O    5.7E15 -1.12 7.07E2
    DUP
!Added from donor mechanism
NH2+O2=H2NO+O    2.6E11 0.4872 2.905E4
!Added from donor mechanism
NH2+O2=HNO+OH    2.9E-2 3.764 1.8185E4
!Added from donor mechanism
2NH2=NH3+NH    5.6E0 3.53 5.52E2
!Added from donor mechanism
NH2+HNO=NH3+NO    3.6E6 1.63 -1.25E3
!Added from donor mechanism
NH2+NO=N2+H2O    1.3E16 -1.25 0.0E0
    DUP
!Added from donor mechanism
NH2+NO=N2+H2O    -3.1E13 -0.48 1.18E3
    DUP
!Added from donor mechanism
NH2+NO=NNH+OH    4.29E10 0.29 -8.7E2
!Added from donor mechanism
NH2+HONO=NH3+NO2    7.1E1 3.02 -4.94E3
!Added from donor mechanism
NH2+NO2=N2O+H2O    2.6E18 -2.191 4.55E2
!Added from donor mechanism
NH2+NO2=H2NO+NO    9.1E11 0.0321 -1.512E3
!Added from donor mechanism
NH+O=NO+H    9.2E13 0.0 0.0E0
!Added from donor mechanism
NH+OH=HNO+H    3.2E14 -0.376 -4.6E1
!Added from donor mechanism
NH+O2=HNO+O    4.6E5 2.0 6.5E3
!Added from donor mechanism
NH+O2=NO+OH    1.3E6 1.5 1.0E2
!Added from donor mechanism
NH+NO=N2O+H    5.0E14 -0.4 0.0E0
!Added from donor mechanism
NH+NO=N2+OH    2.7E12 -0.0721 -5.12E2
!Added from donor mechanism
NH+HONO=NH2+NO2    1.0E13 0.0 0.0E0
!Added from donor mechanism
NH+NO2=N2O+OH    4.1E12 0.0 0.0E0
!Added from donor mechanism
NH+NO2=HNO+NO    5.9E12 0.0 0.0E0
!Added from donor mechanism
NNH=N2+H    1.0E9 0.0 0.0E0
!Added from donor mechanism
NNH+H=N2+H2    1.0E14 0.0 0.0E0
!Added from donor mechanism
NNH+O=N2O+H    1.9E14 -0.274 -2.2E1
!Added from donor mechanism
NNH+O=N2+OH    1.2E13 0.145 -2.17E2
!Added from donor mechanism
NNH+O=NH+NO    5.2E11 0.381 -4.09E2
!Added from donor mechanism
NNH+OH=N2+H2O    5.0E13 0.0 0.0E0
!Added from donor mechanism
NNH+O2=N2+HO2    5.6E14 -0.385 -1.3E1
!Added from donor mechanism
NNH+NH=N2+NH2    5.0E13 0.0 0.0E0
!Added from donor mechanism
NNH+NH2=N2+NH3    5.0E13 0.0 0.0E0
!Added from donor mechanism
NNH+NO=N2+HNO    5.0E13 0.0 0.0E0
!Added from donor mechanism
H2NO+M=HNO+H+M    2.8E24 -2.83 6.4915E4
    H2O/10.0/
!Added from donor mechanism
H2NO+M=H2+NO+M    3.83E27 -4.29 6.03E4
!Added from donor mechanism
H2NO+H=HNO+H2    3.0E7 2.0 2.0E3
!Added from donor mechanism
H2NO+H=NH2+OH    5.0E13 0.0 0.0E0
!Added from donor mechanism
H2NO+O=HNO+OH    3.0E7 2.0 2.0E3
!Added from donor mechanism
H2NO+OH=HNO+H2O    1.0E14 0.0 0.0E0
!Added from donor mechanism
H2NO+HO2=HNO+H2O2    2.9E4 2.69 -1.6E3
!Added from donor mechanism
H2NO+O2=HNO+HO2    2.3E2 2.994 1.89E4
!Added from donor mechanism
H2NO+NH2=HNO+NH3    3.0E12 0.0 1.0E3
!Added from donor mechanism
H2NO+NO=2HNO    2.0E4 2.0 1.3E4
!Added from donor mechanism
H2NO+NO2=HONO+HNO    6.0E11 0.0 2.0E3
!Added from donor mechanism
NO+H(+M)=HNO(+M)    1.5E15 -0.41 0.0E0
    N2/1.6/
    LOW/2.4E14 2.06E-1 -1.55E3/
    TROE/8.2E-1 1.0E-30 1.0E30 1.0E30/
!Added from donor mechanism
HNO+H=NO+H2    9.68E11 0.62 3.56E2
!Added from donor mechanism
HNO+O=NO+OH    1.0E13 0.0 0.0E0
!Added from donor mechanism
HNO+OH=NO+H2O    3.6E13 0.0 0.0E0
!Added from donor mechanism
HNO+O2=HO2+NO    2.0E13 0.0 1.6E4
!Added from donor mechanism
2HNO=N2O+H2O    3.95E12 0.0 5.0E3
!Added from donor mechanism
HNO+NO2=HONO+NO    4.4E4 2.64 4.04E3
!Added from donor mechanism
NO+HO2=NO2+OH    2.1E12 0.0 -4.97E2
!Added from donor mechanism
NO+O(+M)=NO2(+M)    1.3E15 -0.75 0.0E0
    LOW/4.72E24 -2.87E0 1.55E3/
    TROE/7.5E-1 1.0E3 1.0E5 1.0E30/
!Added from donor mechanism
NO2+H=NO+OH    1.3E14 0.0 3.62E2
!Added from donor mechanism
NO2+O=NO+O2    1.1E14 -0.52 0.0E0
!Added from donor mechanism
NO2+HO2=HONO+O2    1.9E0 3.32 3.044E3
!Added from donor mechanism
2NO2=2NO+O2    2.0E12 0.0 2.6825E4
!Added from donor mechanism
NO2+NO=N2O+O2    1.0E12 0.0 6.0E4
!Added from donor mechanism
NO+OH(+M)=HONO(+M)    1.1E14 -0.3 0.0E0
    LOW/3.392E23 -2.5E0 0.0E0/
    TROE/7.5E-1 1.0E-30 1.0E30 1.0E30/
!Added from donor mechanism
NO2+H2=HONO+H    1.3E4 2.76 2.977E4
!Added from donor mechanism
HONO+H=HNO+OH    5.6E10 0.86 5.0E3
!Added from donor mechanism
HONO+H=NO+H2O    8.1E6 1.89 3.85E3
!Added from donor mechanism
HONO+O=NO2+OH    1.2E13 0.0 5.96E3
!Added from donor mechanism
HONO+OH=NO2+H2O    1.3E10 1.0 1.35E2
!Added from donor mechanism
2HONO=NO+NO2+H2O    3.5E-1 3.64 1.214E4
!Added from donor mechanism
N2O(+M)=N2+O(+M)    9.9E10 0.0 5.796E4
    O2/1.4/
    N2/1.7/
    H2O/12.0/
    LOW/6.62E14 0.0E0 5.75E4/
!Added from donor mechanism
N2O+H=N2+OH    3.31E10 0.0 5.09E3
    DUP
!Added from donor mechanism
N2O+H=N2+OH    7.83E14 0.0 1.939E4
    DUP
!Added from donor mechanism
N2O+O=2NO    9.2E13 0.0 2.7679E4
!Added from donor mechanism
N2O+O=N2+O2    3.7E12 0.0 1.5936E4
!Added from donor mechanism
N2O+OH=N2+HO2    2.0E12 0.0 4.0E4
!Added from donor mechanism
HNO+NO=N2O+OH    2.0E12 0.0 2.6E4
!Added from donor mechanism
N2O+NO=NO2+N2    5.3E5 2.23 4.628E4
END
